
---------- Begin Simulation Statistics ----------
sim_seconds                                  0.017705                       # Number of seconds simulated
sim_ticks                                 17705479000                       # Number of ticks simulated
final_tick                                17705479000                       # Number of ticks from beginning of simulation (restored from checkpoints and never reset)
sim_freq                                 1000000000000                       # Frequency of simulated ticks
host_inst_rate                                  57131                       # Simulator instruction rate (inst/s)
host_op_rate                                   103668                       # Simulator op (including micro ops) rate (op/s)
host_tick_rate                               36283148                       # Simulator tick rate (ticks/s)
host_mem_usage                                6502356                       # Number of bytes of host memory used
host_seconds                                   487.98                       # Real time elapsed on the host
sim_insts                                    27878651                       # Number of instructions simulated
sim_ops                                      50588199                       # Number of ops (including micro ops) simulated
system.voltage_domain.voltage                       1                       # Voltage in Volts
system.clk_domain.clock                          1000                       # Clock period in ticks
system.mem_ctrls.pwrStateResidencyTicks::UNDEFINED  17705479000                       # Cumulative time (in ticks) in various power states
system.mem_ctrls.bytes_read::cpu.inst         7095808                       # Number of bytes read from this memory
system.mem_ctrls.bytes_read::cpu.data           51904                       # Number of bytes read from this memory
system.mem_ctrls.bytes_read::cpu.dcache.prefetcher      2040832                       # Number of bytes read from this memory
system.mem_ctrls.bytes_read::cpu.icache.prefetcher     59208576                       # Number of bytes read from this memory
system.mem_ctrls.bytes_read::feature_extraction_datapath.cache         7808                       # Number of bytes read from this memory
system.mem_ctrls.bytes_read::feature_extraction_datapath.cache.prefetcher        20032                       # Number of bytes read from this memory
system.mem_ctrls.bytes_read::total           68424960                       # Number of bytes read from this memory
system.mem_ctrls.bytes_inst_read::cpu.inst      7095808                       # Number of instructions bytes read from this memory
system.mem_ctrls.bytes_inst_read::total       7095808                       # Number of instructions bytes read from this memory
system.mem_ctrls.bytes_written::writebacks        50688                       # Number of bytes written to this memory
system.mem_ctrls.bytes_written::total           50688                       # Number of bytes written to this memory
system.mem_ctrls.num_reads::cpu.inst           110872                       # Number of read requests responded to by this memory
system.mem_ctrls.num_reads::cpu.data              811                       # Number of read requests responded to by this memory
system.mem_ctrls.num_reads::cpu.dcache.prefetcher        31888                       # Number of read requests responded to by this memory
system.mem_ctrls.num_reads::cpu.icache.prefetcher       925134                       # Number of read requests responded to by this memory
system.mem_ctrls.num_reads::feature_extraction_datapath.cache          122                       # Number of read requests responded to by this memory
system.mem_ctrls.num_reads::feature_extraction_datapath.cache.prefetcher          313                       # Number of read requests responded to by this memory
system.mem_ctrls.num_reads::total             1069140                       # Number of read requests responded to by this memory
system.mem_ctrls.num_writes::writebacks           792                       # Number of write requests responded to by this memory
system.mem_ctrls.num_writes::total                792                       # Number of write requests responded to by this memory
system.mem_ctrls.bw_read::cpu.inst          400769050                       # Total read bandwidth from this memory (bytes/s)
system.mem_ctrls.bw_read::cpu.data            2931522                       # Total read bandwidth from this memory (bytes/s)
system.mem_ctrls.bw_read::cpu.dcache.prefetcher    115265563                       # Total read bandwidth from this memory (bytes/s)
system.mem_ctrls.bw_read::cpu.icache.prefetcher   3344082134                       # Total read bandwidth from this memory (bytes/s)
system.mem_ctrls.bw_read::feature_extraction_datapath.cache       440993                       # Total read bandwidth from this memory (bytes/s)
system.mem_ctrls.bw_read::feature_extraction_datapath.cache.prefetcher      1131401                       # Total read bandwidth from this memory (bytes/s)
system.mem_ctrls.bw_read::total            3864620663                       # Total read bandwidth from this memory (bytes/s)
system.mem_ctrls.bw_inst_read::cpu.inst     400769050                       # Instruction read bandwidth from this memory (bytes/s)
system.mem_ctrls.bw_inst_read::total        400769050                       # Instruction read bandwidth from this memory (bytes/s)
system.mem_ctrls.bw_write::writebacks         2862843                       # Write bandwidth from this memory (bytes/s)
system.mem_ctrls.bw_write::total              2862843                       # Write bandwidth from this memory (bytes/s)
system.mem_ctrls.bw_total::writebacks         2862843                       # Total bandwidth to/from this memory (bytes/s)
system.mem_ctrls.bw_total::cpu.inst         400769050                       # Total bandwidth to/from this memory (bytes/s)
system.mem_ctrls.bw_total::cpu.data           2931522                       # Total bandwidth to/from this memory (bytes/s)
system.mem_ctrls.bw_total::cpu.dcache.prefetcher    115265563                       # Total bandwidth to/from this memory (bytes/s)
system.mem_ctrls.bw_total::cpu.icache.prefetcher   3344082134                       # Total bandwidth to/from this memory (bytes/s)
system.mem_ctrls.bw_total::feature_extraction_datapath.cache       440993                       # Total bandwidth to/from this memory (bytes/s)
system.mem_ctrls.bw_total::feature_extraction_datapath.cache.prefetcher      1131401                       # Total bandwidth to/from this memory (bytes/s)
system.mem_ctrls.bw_total::total           3867483506                       # Total bandwidth to/from this memory (bytes/s)
system.mem_ctrls.readReqs                     1069141                       # Number of read requests accepted
system.mem_ctrls.writeReqs                        792                       # Number of write requests accepted
system.mem_ctrls.readBursts                   1069141                       # Number of DRAM read bursts, including those serviced by the write queue
system.mem_ctrls.writeBursts                      792                       # Number of DRAM write bursts, including those merged in the write queue
system.mem_ctrls.bytesReadDRAM               68421056                       # Total number of bytes read from DRAM
system.mem_ctrls.bytesReadWrQ                    3968                       # Total number of bytes read from write queue
system.mem_ctrls.bytesWritten                   49024                       # Total number of bytes written to DRAM
system.mem_ctrls.bytesReadSys                68425024                       # Total read bytes from the system interface side
system.mem_ctrls.bytesWrittenSys                50688                       # Total written bytes from the system interface side
system.mem_ctrls.servicedByWrQ                     62                       # Number of DRAM read bursts serviced by the write queue
system.mem_ctrls.mergedWrBursts                     0                       # Number of DRAM write bursts merged with an existing one
system.mem_ctrls.neitherReadNorWriteReqs            0                       # Number of requests that are neither read nor write
system.mem_ctrls.perBankRdBursts::0             70995                       # Per bank write bursts
system.mem_ctrls.perBankRdBursts::1              7417                       # Per bank write bursts
system.mem_ctrls.perBankRdBursts::2             33687                       # Per bank write bursts
system.mem_ctrls.perBankRdBursts::3              6351                       # Per bank write bursts
system.mem_ctrls.perBankRdBursts::4              8908                       # Per bank write bursts
system.mem_ctrls.perBankRdBursts::5               313                       # Per bank write bursts
system.mem_ctrls.perBankRdBursts::6               990                       # Per bank write bursts
system.mem_ctrls.perBankRdBursts::7             46210                       # Per bank write bursts
system.mem_ctrls.perBankRdBursts::8              1099                       # Per bank write bursts
system.mem_ctrls.perBankRdBursts::9               305                       # Per bank write bursts
system.mem_ctrls.perBankRdBursts::10           116947                       # Per bank write bursts
system.mem_ctrls.perBankRdBursts::11           112268                       # Per bank write bursts
system.mem_ctrls.perBankRdBursts::12           202797                       # Per bank write bursts
system.mem_ctrls.perBankRdBursts::13           138268                       # Per bank write bursts
system.mem_ctrls.perBankRdBursts::14           322114                       # Per bank write bursts
system.mem_ctrls.perBankRdBursts::15              410                       # Per bank write bursts
system.mem_ctrls.perBankWrBursts::0                18                       # Per bank write bursts
system.mem_ctrls.perBankWrBursts::1                 4                       # Per bank write bursts
system.mem_ctrls.perBankWrBursts::2                86                       # Per bank write bursts
system.mem_ctrls.perBankWrBursts::3                50                       # Per bank write bursts
system.mem_ctrls.perBankWrBursts::4                28                       # Per bank write bursts
system.mem_ctrls.perBankWrBursts::5                25                       # Per bank write bursts
system.mem_ctrls.perBankWrBursts::6               136                       # Per bank write bursts
system.mem_ctrls.perBankWrBursts::7               143                       # Per bank write bursts
system.mem_ctrls.perBankWrBursts::8               128                       # Per bank write bursts
system.mem_ctrls.perBankWrBursts::9                71                       # Per bank write bursts
system.mem_ctrls.perBankWrBursts::10               13                       # Per bank write bursts
system.mem_ctrls.perBankWrBursts::11                0                       # Per bank write bursts
system.mem_ctrls.perBankWrBursts::12                0                       # Per bank write bursts
system.mem_ctrls.perBankWrBursts::13                0                       # Per bank write bursts
system.mem_ctrls.perBankWrBursts::14               35                       # Per bank write bursts
system.mem_ctrls.perBankWrBursts::15               29                       # Per bank write bursts
system.mem_ctrls.numRdRetry                         0                       # Number of times read queue was full causing retry
system.mem_ctrls.numWrRetry                         0                       # Number of times write queue was full causing retry
system.mem_ctrls.totGap                   17705474507                       # Total gap between requests
system.mem_ctrls.readPktSize::0                     0                       # Read request sizes (log2)
system.mem_ctrls.readPktSize::1                     0                       # Read request sizes (log2)
system.mem_ctrls.readPktSize::2                     0                       # Read request sizes (log2)
system.mem_ctrls.readPktSize::3                     0                       # Read request sizes (log2)
system.mem_ctrls.readPktSize::4                     0                       # Read request sizes (log2)
system.mem_ctrls.readPktSize::5                     0                       # Read request sizes (log2)
system.mem_ctrls.readPktSize::6               1069141                       # Read request sizes (log2)
system.mem_ctrls.writePktSize::0                    0                       # Write request sizes (log2)
system.mem_ctrls.writePktSize::1                    0                       # Write request sizes (log2)
system.mem_ctrls.writePktSize::2                    0                       # Write request sizes (log2)
system.mem_ctrls.writePktSize::3                    0                       # Write request sizes (log2)
system.mem_ctrls.writePktSize::4                    0                       # Write request sizes (log2)
system.mem_ctrls.writePktSize::5                    0                       # Write request sizes (log2)
system.mem_ctrls.writePktSize::6                  792                       # Write request sizes (log2)
system.mem_ctrls.rdQLenPdf::0                  118184                       # What read queue length does an incoming req see
system.mem_ctrls.rdQLenPdf::1                  122981                       # What read queue length does an incoming req see
system.mem_ctrls.rdQLenPdf::2                  118644                       # What read queue length does an incoming req see
system.mem_ctrls.rdQLenPdf::3                  106214                       # What read queue length does an incoming req see
system.mem_ctrls.rdQLenPdf::4                   96286                       # What read queue length does an incoming req see
system.mem_ctrls.rdQLenPdf::5                   88920                       # What read queue length does an incoming req see
system.mem_ctrls.rdQLenPdf::6                   81560                       # What read queue length does an incoming req see
system.mem_ctrls.rdQLenPdf::7                  107762                       # What read queue length does an incoming req see
system.mem_ctrls.rdQLenPdf::8                   79770                       # What read queue length does an incoming req see
system.mem_ctrls.rdQLenPdf::9                   49711                       # What read queue length does an incoming req see
system.mem_ctrls.rdQLenPdf::10                  36596                       # What read queue length does an incoming req see
system.mem_ctrls.rdQLenPdf::11                  26783                       # What read queue length does an incoming req see
system.mem_ctrls.rdQLenPdf::12                  19325                       # What read queue length does an incoming req see
system.mem_ctrls.rdQLenPdf::13                  12035                       # What read queue length does an incoming req see
system.mem_ctrls.rdQLenPdf::14                   2083                       # What read queue length does an incoming req see
system.mem_ctrls.rdQLenPdf::15                   1375                       # What read queue length does an incoming req see
system.mem_ctrls.rdQLenPdf::16                    401                       # What read queue length does an incoming req see
system.mem_ctrls.rdQLenPdf::17                    186                       # What read queue length does an incoming req see
system.mem_ctrls.rdQLenPdf::18                     87                       # What read queue length does an incoming req see
system.mem_ctrls.rdQLenPdf::19                     56                       # What read queue length does an incoming req see
system.mem_ctrls.rdQLenPdf::20                     52                       # What read queue length does an incoming req see
system.mem_ctrls.rdQLenPdf::21                     25                       # What read queue length does an incoming req see
system.mem_ctrls.rdQLenPdf::22                     22                       # What read queue length does an incoming req see
system.mem_ctrls.rdQLenPdf::23                     12                       # What read queue length does an incoming req see
system.mem_ctrls.rdQLenPdf::24                      4                       # What read queue length does an incoming req see
system.mem_ctrls.rdQLenPdf::25                      2                       # What read queue length does an incoming req see
system.mem_ctrls.rdQLenPdf::26                      2                       # What read queue length does an incoming req see
system.mem_ctrls.rdQLenPdf::27                      1                       # What read queue length does an incoming req see
system.mem_ctrls.rdQLenPdf::28                      0                       # What read queue length does an incoming req see
system.mem_ctrls.rdQLenPdf::29                      0                       # What read queue length does an incoming req see
system.mem_ctrls.rdQLenPdf::30                      0                       # What read queue length does an incoming req see
system.mem_ctrls.rdQLenPdf::31                      0                       # What read queue length does an incoming req see
system.mem_ctrls.wrQLenPdf::0                       1                       # What write queue length does an incoming req see
system.mem_ctrls.wrQLenPdf::1                       1                       # What write queue length does an incoming req see
system.mem_ctrls.wrQLenPdf::2                       1                       # What write queue length does an incoming req see
system.mem_ctrls.wrQLenPdf::3                       1                       # What write queue length does an incoming req see
system.mem_ctrls.wrQLenPdf::4                       1                       # What write queue length does an incoming req see
system.mem_ctrls.wrQLenPdf::5                       1                       # What write queue length does an incoming req see
system.mem_ctrls.wrQLenPdf::6                       1                       # What write queue length does an incoming req see
system.mem_ctrls.wrQLenPdf::7                       1                       # What write queue length does an incoming req see
system.mem_ctrls.wrQLenPdf::8                       1                       # What write queue length does an incoming req see
system.mem_ctrls.wrQLenPdf::9                       1                       # What write queue length does an incoming req see
system.mem_ctrls.wrQLenPdf::10                      1                       # What write queue length does an incoming req see
system.mem_ctrls.wrQLenPdf::11                      1                       # What write queue length does an incoming req see
system.mem_ctrls.wrQLenPdf::12                      1                       # What write queue length does an incoming req see
system.mem_ctrls.wrQLenPdf::13                      1                       # What write queue length does an incoming req see
system.mem_ctrls.wrQLenPdf::14                      1                       # What write queue length does an incoming req see
system.mem_ctrls.wrQLenPdf::15                     30                       # What write queue length does an incoming req see
system.mem_ctrls.wrQLenPdf::16                     31                       # What write queue length does an incoming req see
system.mem_ctrls.wrQLenPdf::17                     32                       # What write queue length does an incoming req see
system.mem_ctrls.wrQLenPdf::18                     37                       # What write queue length does an incoming req see
system.mem_ctrls.wrQLenPdf::19                     37                       # What write queue length does an incoming req see
system.mem_ctrls.wrQLenPdf::20                     38                       # What write queue length does an incoming req see
system.mem_ctrls.wrQLenPdf::21                     41                       # What write queue length does an incoming req see
system.mem_ctrls.wrQLenPdf::22                     39                       # What write queue length does an incoming req see
system.mem_ctrls.wrQLenPdf::23                     39                       # What write queue length does an incoming req see
system.mem_ctrls.wrQLenPdf::24                     38                       # What write queue length does an incoming req see
system.mem_ctrls.wrQLenPdf::25                     38                       # What write queue length does an incoming req see
system.mem_ctrls.wrQLenPdf::26                     38                       # What write queue length does an incoming req see
system.mem_ctrls.wrQLenPdf::27                     37                       # What write queue length does an incoming req see
system.mem_ctrls.wrQLenPdf::28                     39                       # What write queue length does an incoming req see
system.mem_ctrls.wrQLenPdf::29                     38                       # What write queue length does an incoming req see
system.mem_ctrls.wrQLenPdf::30                     43                       # What write queue length does an incoming req see
system.mem_ctrls.wrQLenPdf::31                     45                       # What write queue length does an incoming req see
system.mem_ctrls.wrQLenPdf::32                     39                       # What write queue length does an incoming req see
system.mem_ctrls.wrQLenPdf::33                     14                       # What write queue length does an incoming req see
system.mem_ctrls.wrQLenPdf::34                     10                       # What write queue length does an incoming req see
system.mem_ctrls.wrQLenPdf::35                      9                       # What write queue length does an incoming req see
system.mem_ctrls.wrQLenPdf::36                      9                       # What write queue length does an incoming req see
system.mem_ctrls.wrQLenPdf::37                      8                       # What write queue length does an incoming req see
system.mem_ctrls.wrQLenPdf::38                      7                       # What write queue length does an incoming req see
system.mem_ctrls.wrQLenPdf::39                      5                       # What write queue length does an incoming req see
system.mem_ctrls.wrQLenPdf::40                      4                       # What write queue length does an incoming req see
system.mem_ctrls.wrQLenPdf::41                      3                       # What write queue length does an incoming req see
system.mem_ctrls.wrQLenPdf::42                      2                       # What write queue length does an incoming req see
system.mem_ctrls.wrQLenPdf::43                      4                       # What write queue length does an incoming req see
system.mem_ctrls.wrQLenPdf::44                      2                       # What write queue length does an incoming req see
system.mem_ctrls.wrQLenPdf::45                      2                       # What write queue length does an incoming req see
system.mem_ctrls.wrQLenPdf::46                      1                       # What write queue length does an incoming req see
system.mem_ctrls.wrQLenPdf::47                      1                       # What write queue length does an incoming req see
system.mem_ctrls.wrQLenPdf::48                      1                       # What write queue length does an incoming req see
system.mem_ctrls.wrQLenPdf::49                      1                       # What write queue length does an incoming req see
system.mem_ctrls.wrQLenPdf::50                      1                       # What write queue length does an incoming req see
system.mem_ctrls.wrQLenPdf::51                      1                       # What write queue length does an incoming req see
system.mem_ctrls.wrQLenPdf::52                      1                       # What write queue length does an incoming req see
system.mem_ctrls.wrQLenPdf::53                      1                       # What write queue length does an incoming req see
system.mem_ctrls.wrQLenPdf::54                      1                       # What write queue length does an incoming req see
system.mem_ctrls.wrQLenPdf::55                      1                       # What write queue length does an incoming req see
system.mem_ctrls.wrQLenPdf::56                      1                       # What write queue length does an incoming req see
system.mem_ctrls.wrQLenPdf::57                      2                       # What write queue length does an incoming req see
system.mem_ctrls.wrQLenPdf::58                      6                       # What write queue length does an incoming req see
system.mem_ctrls.wrQLenPdf::59                      0                       # What write queue length does an incoming req see
system.mem_ctrls.wrQLenPdf::60                      0                       # What write queue length does an incoming req see
system.mem_ctrls.wrQLenPdf::61                      0                       # What write queue length does an incoming req see
system.mem_ctrls.wrQLenPdf::62                      0                       # What write queue length does an incoming req see
system.mem_ctrls.wrQLenPdf::63                      0                       # What write queue length does an incoming req see
system.mem_ctrls.bytesPerActivate::samples       124245                       # Bytes accessed per row activation
system.mem_ctrls.bytesPerActivate::mean    551.033587                       # Bytes accessed per row activation
system.mem_ctrls.bytesPerActivate::gmean   407.705827                       # Bytes accessed per row activation
system.mem_ctrls.bytesPerActivate::stdev   352.067222                       # Bytes accessed per row activation
system.mem_ctrls.bytesPerActivate::0-127        10194      8.20%      8.20% # Bytes accessed per row activation
system.mem_ctrls.bytesPerActivate::128-255        24980     20.11%     28.31% # Bytes accessed per row activation
system.mem_ctrls.bytesPerActivate::256-383        14038     11.30%     39.61% # Bytes accessed per row activation
system.mem_ctrls.bytesPerActivate::384-511        10416      8.38%     47.99% # Bytes accessed per row activation
system.mem_ctrls.bytesPerActivate::512-639         8573      6.90%     54.89% # Bytes accessed per row activation
system.mem_ctrls.bytesPerActivate::640-767        11391      9.17%     64.06% # Bytes accessed per row activation
system.mem_ctrls.bytesPerActivate::768-895         9259      7.45%     71.51% # Bytes accessed per row activation
system.mem_ctrls.bytesPerActivate::896-1023         6321      5.09%     76.60% # Bytes accessed per row activation
system.mem_ctrls.bytesPerActivate::1024-1151        29073     23.40%    100.00% # Bytes accessed per row activation
system.mem_ctrls.bytesPerActivate::total       124245                       # Bytes accessed per row activation
system.mem_ctrls.rdPerTurnAround::samples           39                       # Reads before turning the bus around for writes
system.mem_ctrls.rdPerTurnAround::mean   27409.358974                       # Reads before turning the bus around for writes
system.mem_ctrls.rdPerTurnAround::stdev  170512.096832                       # Reads before turning the bus around for writes
system.mem_ctrls.rdPerTurnAround::0-65535           38     97.44%     97.44% # Reads before turning the bus around for writes
system.mem_ctrls.rdPerTurnAround::1.04858e+06-1.11411e+06            1      2.56%    100.00% # Reads before turning the bus around for writes
system.mem_ctrls.rdPerTurnAround::total            39                       # Reads before turning the bus around for writes
system.mem_ctrls.wrPerTurnAround::samples           39                       # Writes before turning the bus around for reads
system.mem_ctrls.wrPerTurnAround::mean      19.641026                       # Writes before turning the bus around for reads
system.mem_ctrls.wrPerTurnAround::gmean     19.327512                       # Writes before turning the bus around for reads
system.mem_ctrls.wrPerTurnAround::stdev      3.773085                       # Writes before turning the bus around for reads
system.mem_ctrls.wrPerTurnAround::16               10     25.64%     25.64% # Writes before turning the bus around for reads
system.mem_ctrls.wrPerTurnAround::18               10     25.64%     51.28% # Writes before turning the bus around for reads
system.mem_ctrls.wrPerTurnAround::19                5     12.82%     64.10% # Writes before turning the bus around for reads
system.mem_ctrls.wrPerTurnAround::20                4     10.26%     74.36% # Writes before turning the bus around for reads
system.mem_ctrls.wrPerTurnAround::21                2      5.13%     79.49% # Writes before turning the bus around for reads
system.mem_ctrls.wrPerTurnAround::23                1      2.56%     82.05% # Writes before turning the bus around for reads
system.mem_ctrls.wrPerTurnAround::25                3      7.69%     89.74% # Writes before turning the bus around for reads
system.mem_ctrls.wrPerTurnAround::26                1      2.56%     92.31% # Writes before turning the bus around for reads
system.mem_ctrls.wrPerTurnAround::27                2      5.13%     97.44% # Writes before turning the bus around for reads
system.mem_ctrls.wrPerTurnAround::31                1      2.56%    100.00% # Writes before turning the bus around for reads
system.mem_ctrls.wrPerTurnAround::total            39                       # Writes before turning the bus around for reads
system.mem_ctrls.totQLat                  40210417771                       # Total ticks spent queuing
system.mem_ctrls.totMemAccLat             60255649021                       # Total ticks spent from burst creation until serviced by the DRAM
system.mem_ctrls.totBusLat                 5345395000                       # Total ticks spent in databus transfers
system.mem_ctrls.avgQLat                     37612.20                       # Average queueing delay per DRAM burst
system.mem_ctrls.avgBusLat                    5000.00                       # Average bus latency per DRAM burst
system.mem_ctrls.avgMemAccLat                56362.20                       # Average memory access latency per DRAM burst
system.mem_ctrls.avgRdBW                      3864.40                       # Average DRAM read bandwidth in MiByte/s
system.mem_ctrls.avgWrBW                         2.77                       # Average achieved write bandwidth in MiByte/s
system.mem_ctrls.avgRdBWSys                   3864.62                       # Average system read bandwidth in MiByte/s
system.mem_ctrls.avgWrBWSys                      2.86                       # Average system write bandwidth in MiByte/s
system.mem_ctrls.peakBW                      12800.00                       # Theoretical peak bandwidth in MiByte/s
system.mem_ctrls.busUtil                        30.21                       # Data bus utilization in percentage
system.mem_ctrls.busUtilRead                    30.19                       # Data bus utilization in percentage for reads
system.mem_ctrls.busUtilWrite                    0.02                       # Data bus utilization in percentage for writes
system.mem_ctrls.avgRdQLen                       5.86                       # Average read queue length when enqueuing
system.mem_ctrls.avgWrQLen                      26.61                       # Average write queue length when enqueuing
system.mem_ctrls.readRowHits                   944894                       # Number of row buffer hits during reads
system.mem_ctrls.writeRowHits                     691                       # Number of row buffer hits during writes
system.mem_ctrls.readRowHitRate                 88.38                       # Row buffer hit rate for reads
system.mem_ctrls.writeRowHitRate                87.25                       # Row buffer hit rate for writes
system.mem_ctrls.avgGap                      16548.21                       # Average gap between requests
system.mem_ctrls.pageHitRate                    88.38                       # Row buffer hit rate, read and write combined
system.mem_ctrls_0.actEnergy                150439800                       # Energy for activate commands per rank (pJ)
system.mem_ctrls_0.preEnergy                 79934085                       # Energy for precharge commands per rank (pJ)
system.mem_ctrls_0.readEnergy              1248571800                       # Energy for read commands per rank (pJ)
system.mem_ctrls_0.writeEnergy                2557800                       # Energy for write commands per rank (pJ)
system.mem_ctrls_0.refreshEnergy         1255709520.000000                       # Energy for refresh commands per rank (pJ)
system.mem_ctrls_0.actBackEnergy           1352171670                       # Energy for active background per rank (pJ)
system.mem_ctrls_0.preBackEnergy             27495840                       # Energy for precharge background per rank (pJ)
system.mem_ctrls_0.actPowerDownEnergy      5241046830                       # Energy for active power-down per rank (pJ)
system.mem_ctrls_0.prePowerDownEnergy       489860640                       # Energy for precharge power-down per rank (pJ)
system.mem_ctrls_0.selfRefreshEnergy        464136000                       # Energy for self refresh per rank (pJ)
system.mem_ctrls_0.totalEnergy            10311923985                       # Total energy per rank (pJ)
system.mem_ctrls_0.averagePower            582.414290                       # Core power per rank (mW)
system.mem_ctrls_0.totalIdleTime          14669446578                       # Total Idle time Per DRAM Rank
system.mem_ctrls_0.memoryStateTime::IDLE     14801750                       # Time in different power states
system.mem_ctrls_0.memoryStateTime::REF     531270000                       # Time in different power states
system.mem_ctrls_0.memoryStateTime::SREF   1899384500                       # Time in different power states
system.mem_ctrls_0.memoryStateTime::PRE_PDN   1275882660                       # Time in different power states
system.mem_ctrls_0.memoryStateTime::ACT    2489960672                       # Time in different power states
system.mem_ctrls_0.memoryStateTime::ACT_PDN  11494179418                       # Time in different power states
system.mem_ctrls_1.actEnergy                736769460                       # Energy for activate commands per rank (pJ)
system.mem_ctrls_1.preEnergy                391571895                       # Energy for precharge commands per rank (pJ)
system.mem_ctrls_1.readEnergy              6384645120                       # Energy for read commands per rank (pJ)
system.mem_ctrls_1.writeEnergy                1440720                       # Energy for write commands per rank (pJ)
system.mem_ctrls_1.refreshEnergy         1237884960.000000                       # Energy for refresh commands per rank (pJ)
system.mem_ctrls_1.actBackEnergy           4575887610                       # Energy for active background per rank (pJ)
system.mem_ctrls_1.preBackEnergy             28341600                       # Energy for precharge background per rank (pJ)
system.mem_ctrls_1.actPowerDownEnergy      2463751470                       # Energy for active power-down per rank (pJ)
system.mem_ctrls_1.prePowerDownEnergy        40257600                       # Energy for precharge power-down per rank (pJ)
system.mem_ctrls_1.selfRefreshEnergy        506889900                       # Energy for self refresh per rank (pJ)
system.mem_ctrls_1.totalEnergy            16367440335                       # Total energy per rank (pJ)
system.mem_ctrls_1.averagePower            924.427988                       # Core power per rank (mW)
system.mem_ctrls_1.totalIdleTime           7593997399                       # Total Idle time Per DRAM Rank
system.mem_ctrls_1.memoryStateTime::IDLE     13009250                       # Time in different power states
system.mem_ctrls_1.memoryStateTime::REF     523700000                       # Time in different power states
system.mem_ctrls_1.memoryStateTime::SREF   2089031507                       # Time in different power states
system.mem_ctrls_1.memoryStateTime::PRE_PDN    104943577                       # Time in different power states
system.mem_ctrls_1.memoryStateTime::ACT    9574739108                       # Time in different power states
system.mem_ctrls_1.memoryStateTime::ACT_PDN   5400055558                       # Time in different power states
system.pwrStateResidencyTicks::UNDEFINED  17705479000                       # Cumulative time (in ticks) in various power states
system.cpu.branchPred.lookups                 9699799                       # Number of BP lookups
system.cpu.branchPred.condPredicted           9699799                       # Number of conditional branches predicted
system.cpu.branchPred.condIncorrect            418199                       # Number of conditional branches incorrect
system.cpu.branchPred.BTBLookups              8822882                       # Number of BTB lookups
system.cpu.branchPred.BTBHits                       0                       # Number of BTB hits
system.cpu.branchPred.BTBCorrect                    0                       # Number of correct BTB predictions (this stat may not work properly.
system.cpu.branchPred.BTBHitPct              0.000000                       # BTB Hit Percentage
system.cpu.branchPred.usedRAS                  359030                       # Number of times the RAS was used to get a target.
system.cpu.branchPred.RASInCorrect              58257                       # Number of incorrect RAS predictions.
system.cpu.branchPred.indirectLookups         8822882                       # Number of indirect predictor lookups.
system.cpu.branchPred.indirectHits            5835624                       # Number of indirect target hits.
system.cpu.branchPred.indirectMisses          2987258                       # Number of indirect misses.
system.cpu.branchPredindirectMispredicted       307419                       # Number of mispredicted indirect branches.
system.cpu_voltage_domain.voltage                   1                       # Voltage in Volts
system.cpu_clk_domain.clock                       500                       # Clock period in ticks
system.cpu.dtb.walker.pwrStateResidencyTicks::UNDEFINED  17705479000                       # Cumulative time (in ticks) in various power states
system.cpu.dtb.rdAccesses                     8850029                       # TLB accesses on read requests
system.cpu.dtb.wrAccesses                     2456091                       # TLB accesses on write requests
system.cpu.dtb.rdMisses                         45279                       # TLB misses on read requests
system.cpu.dtb.wrMisses                          9501                       # TLB misses on write requests
system.cpu.apic_clk_domain.clock                 8000                       # Clock period in ticks
system.cpu.interrupts.pwrStateResidencyTicks::UNDEFINED  17705479000                       # Cumulative time (in ticks) in various power states
system.cpu.itb.walker.pwrStateResidencyTicks::UNDEFINED  17705479000                       # Cumulative time (in ticks) in various power states
system.cpu.itb.rdAccesses                           0                       # TLB accesses on read requests
system.cpu.itb.wrAccesses                     3528591                       # TLB accesses on write requests
system.cpu.itb.rdMisses                             0                       # TLB misses on read requests
system.cpu.itb.wrMisses                          2470                       # TLB misses on write requests
system.cpu.workload.numSyscalls                  3782                       # Number of system calls
system.cpu.pwrStateResidencyTicks::ON     17705479000                       # Cumulative time (in ticks) in various power states
system.cpu.numCycles                         35410959                       # number of cpu cycles simulated
system.cpu.numWorkItemsStarted                      0                       # number of work items this cpu started
system.cpu.numWorkItemsCompleted                    0                       # number of work items this cpu completed
system.cpu.fetch.icacheStallCycles            7213615                       # Number of cycles fetch is stalled on an Icache miss
system.cpu.fetch.Insts                       37791326                       # Number of instructions fetch has processed
system.cpu.fetch.Branches                     9699799                       # Number of branches that fetch encountered
system.cpu.fetch.predictedBranches            6194654                       # Number of branches that fetch has predicted taken
system.cpu.fetch.Cycles                      12081301                       # Number of cycles fetch has run and was not squashing or blocked
system.cpu.fetch.SquashCycles                  840052                       # Number of cycles fetch has spent squashing
system.cpu.fetch.MiscStallCycles                 2249                       # Number of cycles fetch has spent waiting on interrupts, or bad addresses, or out of MSHRs
system.cpu.fetch.PendingTrapStallCycles         13087                       # Number of stall cycles due to pending traps
system.cpu.fetch.PendingQuiesceStallCycles           31                       # Number of stall cycles due to pending quiesce instructions
system.cpu.fetch.IcacheWaitRetryStallCycles           45                       # Number of stall cycles due to full MSHR
system.cpu.fetch.CacheLines                   3526196                       # Number of cache lines fetched
system.cpu.fetch.IcacheSquashes                129684                       # Number of outstanding Icache misses that were squashed
system.cpu.fetch.rateDist::samples           19730354                       # Number of instructions fetched each cycle (Total)
system.cpu.fetch.rateDist::mean              3.472251                       # Number of instructions fetched each cycle (Total)
system.cpu.fetch.rateDist::stdev             3.249902                       # Number of instructions fetched each cycle (Total)
system.cpu.fetch.rateDist::underflows               0      0.00%      0.00% # Number of instructions fetched each cycle (Total)
system.cpu.fetch.rateDist::0                  7905610     40.07%     40.07% # Number of instructions fetched each cycle (Total)
system.cpu.fetch.rateDist::1                   537646      2.72%     42.79% # Number of instructions fetched each cycle (Total)
system.cpu.fetch.rateDist::2                   480701      2.44%     45.23% # Number of instructions fetched each cycle (Total)
system.cpu.fetch.rateDist::3                   501382      2.54%     47.77% # Number of instructions fetched each cycle (Total)
system.cpu.fetch.rateDist::4                   375292      1.90%     49.67% # Number of instructions fetched each cycle (Total)
system.cpu.fetch.rateDist::5                  4748746     24.07%     73.74% # Number of instructions fetched each cycle (Total)
system.cpu.fetch.rateDist::6                   398791      2.02%     75.76% # Number of instructions fetched each cycle (Total)
system.cpu.fetch.rateDist::7                   389580      1.97%     77.74% # Number of instructions fetched each cycle (Total)
system.cpu.fetch.rateDist::8                  4392606     22.26%    100.00% # Number of instructions fetched each cycle (Total)
system.cpu.fetch.rateDist::overflows                0      0.00%    100.00% # Number of instructions fetched each cycle (Total)
system.cpu.fetch.rateDist::min_value                0                       # Number of instructions fetched each cycle (Total)
system.cpu.fetch.rateDist::max_value                8                       # Number of instructions fetched each cycle (Total)
system.cpu.fetch.rateDist::total             19730354                       # Number of instructions fetched each cycle (Total)
system.cpu.fetch.branchRate                  0.273921                       # Number of branch fetches per cycle
system.cpu.fetch.rate                        1.067221                       # Number of inst fetches per cycle
system.cpu.decode.IdleCycles                  6765832                       # Number of cycles decode is idle
system.cpu.decode.BlockedCycles               1255422                       # Number of cycles decode is blocked
system.cpu.decode.RunCycles                  11015383                       # Number of cycles decode is running
system.cpu.decode.UnblockCycles                273691                       # Number of cycles decode is unblocking
system.cpu.decode.SquashCycles                 420026                       # Number of cycles decode is squashing
system.cpu.decode.DecodedInsts               66363598                       # Number of instructions handled by decode
system.cpu.rename.SquashCycles                 420026                       # Number of cycles rename is squashing
system.cpu.rename.IdleCycles                  7026338                       # Number of cycles rename is idle
system.cpu.rename.BlockCycles                 1115067                       # Number of cycles rename is blocking
system.cpu.rename.serializeStallCycles         117525                       # count of cycles rename stalled for serializing inst
system.cpu.rename.RunCycles                  11014904                       # Number of cycles rename is running
system.cpu.rename.UnblockCycles                 36494                       # Number of cycles rename is unblocking
system.cpu.rename.RenamedInsts               64605296                       # Number of instructions processed by rename
system.cpu.rename.ROBFullEvents                   574                       # Number of times rename has blocked due to ROB full
system.cpu.rename.IQFullEvents                  20599                       # Number of times rename has blocked due to IQ full
system.cpu.rename.SQFullEvents                   1966                       # Number of times rename has blocked due to SQ full
system.cpu.rename.RenamedOperands            74547812                       # Number of destination operands rename has renamed
system.cpu.rename.RenameLookups             168372315                       # Number of register rename lookups that rename has made
system.cpu.rename.int_rename_lookups         89399475                       # Number of integer rename lookups
system.cpu.rename.fp_rename_lookups           1828950                       # Number of floating rename lookups
system.cpu.rename.CommittedMaps              58867354                       # Number of HB maps that are committed
system.cpu.rename.UndoneMaps                 15680458                       # Number of HB maps that are undone due to squashing
system.cpu.rename.serializingInsts               8978                       # count of serializing insts renamed
system.cpu.rename.tempSerializingInsts           8981                       # count of temporary serializing insts renamed
system.cpu.rename.skidInsts                    159577                       # count of insts added to the skid buffer
system.cpu.memDep0.insertedLoads              9386358                       # Number of loads inserted to the mem dependence unit.
system.cpu.memDep0.insertedStores             2993971                       # Number of stores inserted to the mem dependence unit.
system.cpu.memDep0.conflictingLoads            251079                       # Number of conflicting loads.
system.cpu.memDep0.conflictingStores           100296                       # Number of conflicting stores.
system.cpu.iq.iqInstsAdded                   60820694                       # Number of instructions added to the IQ (excludes non-spec)
system.cpu.iq.iqNonSpecInstsAdded               12088                       # Number of non-speculative instructions added to the IQ
system.cpu.iq.iqInstsIssued                  57430036                       # Number of instructions issued
system.cpu.iq.iqSquashedInstsIssued            100353                       # Number of squashed instructions issued
system.cpu.iq.iqSquashedInstsExamined        10244582                       # Number of squashed instructions iterated over during squash; mainly for profiling
system.cpu.iq.iqSquashedOperandsExamined     15000004                       # Number of squashed operands that are examined and possibly removed from graph
system.cpu.iq.iqSquashedNonSpecRemoved           8306                       # Number of squashed non-spec instructions that were removed
system.cpu.iq.issued_per_cycle::samples      19730354                       # Number of insts issued each cycle
system.cpu.iq.issued_per_cycle::mean         2.910745                       # Number of insts issued each cycle
system.cpu.iq.issued_per_cycle::stdev        2.492740                       # Number of insts issued each cycle
system.cpu.iq.issued_per_cycle::underflows            0      0.00%      0.00% # Number of insts issued each cycle
system.cpu.iq.issued_per_cycle::0             6299579     31.93%     31.93% # Number of insts issued each cycle
system.cpu.iq.issued_per_cycle::1             1341085      6.80%     38.73% # Number of insts issued each cycle
system.cpu.iq.issued_per_cycle::2             1607011      8.14%     46.87% # Number of insts issued each cycle
system.cpu.iq.issued_per_cycle::3             1268507      6.43%     53.30% # Number of insts issued each cycle
system.cpu.iq.issued_per_cycle::4             1248881      6.33%     59.63% # Number of insts issued each cycle
system.cpu.iq.issued_per_cycle::5             5573316     28.25%     87.88% # Number of insts issued each cycle
system.cpu.iq.issued_per_cycle::6             1052037      5.33%     93.21% # Number of insts issued each cycle
system.cpu.iq.issued_per_cycle::7              824422      4.18%     97.39% # Number of insts issued each cycle
system.cpu.iq.issued_per_cycle::8              515516      2.61%    100.00% # Number of insts issued each cycle
system.cpu.iq.issued_per_cycle::overflows            0      0.00%    100.00% # Number of insts issued each cycle
system.cpu.iq.issued_per_cycle::min_value            0                       # Number of insts issued each cycle
system.cpu.iq.issued_per_cycle::max_value            8                       # Number of insts issued each cycle
system.cpu.iq.issued_per_cycle::total        19730354                       # Number of insts issued each cycle
system.cpu.iq.fu_full::No_OpClass                   0      0.00%      0.00% # attempts to use FU when none available
system.cpu.iq.fu_full::IntAlu                  406410     81.34%     81.34% # attempts to use FU when none available
system.cpu.iq.fu_full::IntMult                      0      0.00%     81.34% # attempts to use FU when none available
system.cpu.iq.fu_full::IntDiv                       0      0.00%     81.34% # attempts to use FU when none available
system.cpu.iq.fu_full::FloatAdd                  4245      0.85%     82.19% # attempts to use FU when none available
system.cpu.iq.fu_full::FloatCmp                     0      0.00%     82.19% # attempts to use FU when none available
system.cpu.iq.fu_full::FloatCvt                     0      0.00%     82.19% # attempts to use FU when none available
system.cpu.iq.fu_full::FloatMult                    0      0.00%     82.19% # attempts to use FU when none available
system.cpu.iq.fu_full::FloatMultAcc                 0      0.00%     82.19% # attempts to use FU when none available
system.cpu.iq.fu_full::FloatDiv                     0      0.00%     82.19% # attempts to use FU when none available
system.cpu.iq.fu_full::FloatMisc                    0      0.00%     82.19% # attempts to use FU when none available
system.cpu.iq.fu_full::FloatSqrt                    0      0.00%     82.19% # attempts to use FU when none available
system.cpu.iq.fu_full::SimdAdd                      0      0.00%     82.19% # attempts to use FU when none available
system.cpu.iq.fu_full::SimdAddAcc                   0      0.00%     82.19% # attempts to use FU when none available
system.cpu.iq.fu_full::SimdAlu                      0      0.00%     82.19% # attempts to use FU when none available
system.cpu.iq.fu_full::SimdCmp                      0      0.00%     82.19% # attempts to use FU when none available
system.cpu.iq.fu_full::SimdCvt                      0      0.00%     82.19% # attempts to use FU when none available
system.cpu.iq.fu_full::SimdMisc                     0      0.00%     82.19% # attempts to use FU when none available
system.cpu.iq.fu_full::SimdMult                     0      0.00%     82.19% # attempts to use FU when none available
system.cpu.iq.fu_full::SimdMultAcc                  0      0.00%     82.19% # attempts to use FU when none available
system.cpu.iq.fu_full::SimdShift                    0      0.00%     82.19% # attempts to use FU when none available
system.cpu.iq.fu_full::SimdShiftAcc                 0      0.00%     82.19% # attempts to use FU when none available
system.cpu.iq.fu_full::SimdSqrt                     0      0.00%     82.19% # attempts to use FU when none available
system.cpu.iq.fu_full::SimdFloatAdd                 0      0.00%     82.19% # attempts to use FU when none available
system.cpu.iq.fu_full::SimdFloatAlu                 0      0.00%     82.19% # attempts to use FU when none available
system.cpu.iq.fu_full::SimdFloatCmp                 0      0.00%     82.19% # attempts to use FU when none available
system.cpu.iq.fu_full::SimdFloatCvt                 0      0.00%     82.19% # attempts to use FU when none available
system.cpu.iq.fu_full::SimdFloatDiv                 0      0.00%     82.19% # attempts to use FU when none available
system.cpu.iq.fu_full::SimdFloatMisc                0      0.00%     82.19% # attempts to use FU when none available
system.cpu.iq.fu_full::SimdFloatMult                0      0.00%     82.19% # attempts to use FU when none available
system.cpu.iq.fu_full::SimdFloatMultAcc             0      0.00%     82.19% # attempts to use FU when none available
system.cpu.iq.fu_full::SimdFloatSqrt                0      0.00%     82.19% # attempts to use FU when none available
system.cpu.iq.fu_full::MemRead                  61364     12.28%     94.47% # attempts to use FU when none available
system.cpu.iq.fu_full::MemWrite                 12610      2.52%     96.99% # attempts to use FU when none available
system.cpu.iq.fu_full::FloatMemRead               112      0.02%     97.02% # attempts to use FU when none available
system.cpu.iq.fu_full::FloatMemWrite            14907      2.98%    100.00% # attempts to use FU when none available
system.cpu.iq.fu_full::IprAccess                    0      0.00%    100.00% # attempts to use FU when none available
system.cpu.iq.fu_full::InstPrefetch                 0      0.00%    100.00% # attempts to use FU when none available
system.cpu.iq.FU_type_0::No_OpClass            301065      0.52%      0.52% # Type of FU issued
system.cpu.iq.FU_type_0::IntAlu              44652648     77.75%     78.28% # Type of FU issued
system.cpu.iq.FU_type_0::IntMult                62676      0.11%     78.38% # Type of FU issued
system.cpu.iq.FU_type_0::IntDiv                249223      0.43%     78.82% # Type of FU issued
system.cpu.iq.FU_type_0::FloatAdd              555456      0.97%     79.79% # Type of FU issued
system.cpu.iq.FU_type_0::FloatCmp                   0      0.00%     79.79% # Type of FU issued
system.cpu.iq.FU_type_0::FloatCvt                   0      0.00%     79.79% # Type of FU issued
system.cpu.iq.FU_type_0::FloatMult                  0      0.00%     79.79% # Type of FU issued
system.cpu.iq.FU_type_0::FloatMultAcc               0      0.00%     79.79% # Type of FU issued
system.cpu.iq.FU_type_0::FloatDiv                   0      0.00%     79.79% # Type of FU issued
system.cpu.iq.FU_type_0::FloatMisc                  0      0.00%     79.79% # Type of FU issued
system.cpu.iq.FU_type_0::FloatSqrt                  0      0.00%     79.79% # Type of FU issued
system.cpu.iq.FU_type_0::SimdAdd                    0      0.00%     79.79% # Type of FU issued
system.cpu.iq.FU_type_0::SimdAddAcc                 0      0.00%     79.79% # Type of FU issued
system.cpu.iq.FU_type_0::SimdAlu                    0      0.00%     79.79% # Type of FU issued
system.cpu.iq.FU_type_0::SimdCmp                    0      0.00%     79.79% # Type of FU issued
system.cpu.iq.FU_type_0::SimdCvt                    0      0.00%     79.79% # Type of FU issued
system.cpu.iq.FU_type_0::SimdMisc                   0      0.00%     79.79% # Type of FU issued
system.cpu.iq.FU_type_0::SimdMult                   0      0.00%     79.79% # Type of FU issued
system.cpu.iq.FU_type_0::SimdMultAcc                0      0.00%     79.79% # Type of FU issued
system.cpu.iq.FU_type_0::SimdShift                  0      0.00%     79.79% # Type of FU issued
system.cpu.iq.FU_type_0::SimdShiftAcc               0      0.00%     79.79% # Type of FU issued
system.cpu.iq.FU_type_0::SimdSqrt                   0      0.00%     79.79% # Type of FU issued
system.cpu.iq.FU_type_0::SimdFloatAdd               0      0.00%     79.79% # Type of FU issued
system.cpu.iq.FU_type_0::SimdFloatAlu               0      0.00%     79.79% # Type of FU issued
system.cpu.iq.FU_type_0::SimdFloatCmp               0      0.00%     79.79% # Type of FU issued
system.cpu.iq.FU_type_0::SimdFloatCvt               0      0.00%     79.79% # Type of FU issued
system.cpu.iq.FU_type_0::SimdFloatDiv               0      0.00%     79.79% # Type of FU issued
system.cpu.iq.FU_type_0::SimdFloatMisc              0      0.00%     79.79% # Type of FU issued
system.cpu.iq.FU_type_0::SimdFloatMult              0      0.00%     79.79% # Type of FU issued
system.cpu.iq.FU_type_0::SimdFloatMultAcc            0      0.00%     79.79% # Type of FU issued
system.cpu.iq.FU_type_0::SimdFloatSqrt              0      0.00%     79.79% # Type of FU issued
system.cpu.iq.FU_type_0::MemRead              8865848     15.44%     95.22% # Type of FU issued
system.cpu.iq.FU_type_0::MemWrite             2492480      4.34%     99.56% # Type of FU issued
system.cpu.iq.FU_type_0::FloatMemRead          171110      0.30%     99.86% # Type of FU issued
system.cpu.iq.FU_type_0::FloatMemWrite          79530      0.14%    100.00% # Type of FU issued
system.cpu.iq.FU_type_0::IprAccess                  0      0.00%    100.00% # Type of FU issued
system.cpu.iq.FU_type_0::InstPrefetch               0      0.00%    100.00% # Type of FU issued
system.cpu.iq.FU_type_0::total               57430036                       # Type of FU issued
system.cpu.iq.rate                           1.621815                       # Inst issue rate
system.cpu.iq.fu_busy_cnt                      499648                       # FU busy when requested
system.cpu.iq.fu_busy_rate                   0.008700                       # FU busy rate (busy events/executed inst)
system.cpu.iq.int_inst_queue_reads          133252459                       # Number of integer instruction queue reads
system.cpu.iq.int_inst_queue_writes          69912513                       # Number of integer instruction queue writes
system.cpu.iq.int_inst_queue_wakeup_accesses     55008180                       # Number of integer instruction queue wakeup accesses
system.cpu.iq.fp_inst_queue_reads             1937968                       # Number of floating instruction queue reads
system.cpu.iq.fp_inst_queue_writes            1165986                       # Number of floating instruction queue writes
system.cpu.iq.fp_inst_queue_wakeup_accesses       947724                       # Number of floating instruction queue wakeup accesses
system.cpu.iq.vec_inst_queue_reads                  0                       # Number of vector instruction queue reads
system.cpu.iq.vec_inst_queue_writes                 0                       # Number of vector instruction queue writes
system.cpu.iq.vec_inst_queue_wakeup_accesses            0                       # Number of vector instruction queue wakeup accesses
system.cpu.iq.int_alu_accesses               56649940                       # Number of integer alu accesses
system.cpu.iq.fp_alu_accesses                  978679                       # Number of floating point alu accesses
system.cpu.iq.vec_alu_accesses                      0                       # Number of vector alu accesses
system.cpu.iew.lsq.thread0.forwLoads           359061                       # Number of loads that had data forwarded from stores
system.cpu.iew.lsq.thread0.invAddrLoads             0                       # Number of loads ignored due to an invalid address
system.cpu.iew.lsq.thread0.squashedLoads      1492574                       # Number of loads squashed
system.cpu.iew.lsq.thread0.ignoredResponses         3854                       # Number of memory responses ignored because the instruction is squashed
system.cpu.iew.lsq.thread0.memOrderViolation         1231                       # Number of memory ordering violations
system.cpu.iew.lsq.thread0.squashedStores       836358                       # Number of stores squashed
system.cpu.iew.lsq.thread0.invAddrSwpfs             0                       # Number of software prefetches ignored due to an invalid address
system.cpu.iew.lsq.thread0.blockedLoads             0                       # Number of blocked loads due to partial load-store forwarding
system.cpu.iew.lsq.thread0.rescheduledLoads           66                       # Number of loads that were rescheduled
system.cpu.iew.lsq.thread0.cacheBlocked            23                       # Number of times an access to memory failed due to the cache being blocked
system.cpu.iew.iewIdleCycles                        0                       # Number of cycles IEW is idle
system.cpu.iew.iewSquashCycles                 420026                       # Number of cycles IEW is squashing
system.cpu.iew.iewBlockCycles                 1110680                       # Number of cycles IEW is blocking
system.cpu.iew.iewUnblockCycles                   533                       # Number of cycles IEW is unblocking
system.cpu.iew.iewDispatchedInsts            60832782                       # Number of instructions dispatched to IQ
system.cpu.iew.iewDispSquashedInsts             36596                       # Number of squashed instructions skipped by dispatch
system.cpu.iew.iewDispLoadInsts               9386358                       # Number of dispatched load instructions
system.cpu.iew.iewDispStoreInsts              2993971                       # Number of dispatched store instructions
system.cpu.iew.iewDispNonSpecInsts               9957                       # Number of dispatched non-speculative instructions
system.cpu.iew.iewIQFullEvents                    297                       # Number of times the IQ has become full, causing a stall
system.cpu.iew.iewLSQFullEvents                   226                       # Number of times the LSQ has become full, causing a stall
system.cpu.iew.memOrderViolationEvents           1231                       # Number of memory order violations
system.cpu.iew.predictedTakenIncorrect          91276                       # Number of branches that were predicted taken incorrectly
system.cpu.iew.predictedNotTakenIncorrect       489138                       # Number of branches that were predicted not taken incorrectly
system.cpu.iew.branchMispredicts               580414                       # Number of branch mispredicts detected at execute
system.cpu.iew.iewExecutedInsts              56451275                       # Number of executed instructions
system.cpu.iew.iewExecLoadInsts               8842529                       # Number of load instructions executed
system.cpu.iew.iewExecSquashedInsts            978761                       # Number of squashed instructions skipped in execute
system.cpu.iew.exec_swp                             0                       # number of swp insts executed
system.cpu.iew.exec_nop                             0                       # number of nop insts executed
system.cpu.iew.exec_refs                     11293381                       # number of memory reference insts executed
system.cpu.iew.exec_branches                  8184301                       # Number of branches executed
system.cpu.iew.exec_stores                    2450852                       # Number of stores executed
system.cpu.iew.exec_rate                     1.594175                       # Inst execution rate
system.cpu.iew.wb_sent                       56201918                       # cumulative count of insts sent to commit
system.cpu.iew.wb_count                      55955904                       # cumulative count of insts written-back
system.cpu.iew.wb_producers                  41351650                       # num instructions producing a value
system.cpu.iew.wb_consumers                  60628587                       # num instructions consuming a value
system.cpu.iew.wb_rate                       1.580186                       # insts written-back per cycle
system.cpu.iew.wb_fanout                     0.682049                       # average fanout of values written-back
system.cpu.commit.commitSquashedInsts        10244517                       # The number of squashed insts skipped by commit
system.cpu.commit.commitNonSpecStalls            3782                       # The number of times commit has been forced to stall to communicate backwards
system.cpu.commit.branchMispredicts            419333                       # The number of times a branch was mispredicted
system.cpu.commit.committed_per_cycle::samples     18201161                       # Number of insts commited each cycle
system.cpu.commit.committed_per_cycle::mean     2.779394                       # Number of insts commited each cycle
system.cpu.commit.committed_per_cycle::stdev     2.651124                       # Number of insts commited each cycle
system.cpu.commit.committed_per_cycle::underflows            0      0.00%      0.00% # Number of insts commited each cycle
system.cpu.commit.committed_per_cycle::0      6290064     34.56%     34.56% # Number of insts commited each cycle
system.cpu.commit.committed_per_cycle::1      1793298      9.85%     44.41% # Number of insts commited each cycle
system.cpu.commit.committed_per_cycle::2      1164490      6.40%     50.81% # Number of insts commited each cycle
system.cpu.commit.committed_per_cycle::3      1492191      8.20%     59.01% # Number of insts commited each cycle
system.cpu.commit.committed_per_cycle::4       587631      3.23%     62.24% # Number of insts commited each cycle
system.cpu.commit.committed_per_cycle::5      4824212     26.50%     88.74% # Number of insts commited each cycle
system.cpu.commit.committed_per_cycle::6       317594      1.74%     90.49% # Number of insts commited each cycle
system.cpu.commit.committed_per_cycle::7       241248      1.33%     91.81% # Number of insts commited each cycle
system.cpu.commit.committed_per_cycle::8      1490433      8.19%    100.00% # Number of insts commited each cycle
system.cpu.commit.committed_per_cycle::overflows            0      0.00%    100.00% # Number of insts commited each cycle
system.cpu.commit.committed_per_cycle::min_value            0                       # Number of insts commited each cycle
system.cpu.commit.committed_per_cycle::max_value            8                       # Number of insts commited each cycle
system.cpu.commit.committed_per_cycle::total     18201161                       # Number of insts commited each cycle
system.cpu.commit.committedInsts             27878651                       # Number of instructions committed
system.cpu.commit.committedOps               50588199                       # Number of ops (including micro ops) committed
system.cpu.commit.swp_count                         0                       # Number of s/w prefetches committed
system.cpu.commit.refs                       10051397                       # Number of memory references committed
system.cpu.commit.loads                       7893784                       # Number of loads committed
system.cpu.commit.membars                           0                       # Number of memory barriers committed
system.cpu.commit.branches                    7735087                       # Number of branches committed
system.cpu.commit.vec_insts                         0                       # Number of committed Vector instructions.
system.cpu.commit.fp_insts                     883420                       # Number of committed floating point instructions.
system.cpu.commit.int_insts                  49834495                       # Number of committed integer instructions.
system.cpu.commit.function_calls               247564                       # Number of function calls committed.
system.cpu.commit.op_class_0::No_OpClass       171050      0.34%      0.34% # Class of committed instruction
system.cpu.commit.op_class_0::IntAlu         39542942     78.17%     78.50% # Class of committed instruction
system.cpu.commit.op_class_0::IntMult           62632      0.12%     78.63% # Class of committed instruction
system.cpu.commit.op_class_0::IntDiv           231420      0.46%     79.09% # Class of committed instruction
system.cpu.commit.op_class_0::FloatAdd         528758      1.05%     80.13% # Class of committed instruction
system.cpu.commit.op_class_0::FloatCmp              0      0.00%     80.13% # Class of committed instruction
system.cpu.commit.op_class_0::FloatCvt              0      0.00%     80.13% # Class of committed instruction
system.cpu.commit.op_class_0::FloatMult             0      0.00%     80.13% # Class of committed instruction
system.cpu.commit.op_class_0::FloatMultAcc            0      0.00%     80.13% # Class of committed instruction
system.cpu.commit.op_class_0::FloatDiv              0      0.00%     80.13% # Class of committed instruction
system.cpu.commit.op_class_0::FloatMisc             0      0.00%     80.13% # Class of committed instruction
system.cpu.commit.op_class_0::FloatSqrt             0      0.00%     80.13% # Class of committed instruction
system.cpu.commit.op_class_0::SimdAdd               0      0.00%     80.13% # Class of committed instruction
system.cpu.commit.op_class_0::SimdAddAcc            0      0.00%     80.13% # Class of committed instruction
system.cpu.commit.op_class_0::SimdAlu               0      0.00%     80.13% # Class of committed instruction
system.cpu.commit.op_class_0::SimdCmp               0      0.00%     80.13% # Class of committed instruction
system.cpu.commit.op_class_0::SimdCvt               0      0.00%     80.13% # Class of committed instruction
system.cpu.commit.op_class_0::SimdMisc              0      0.00%     80.13% # Class of committed instruction
system.cpu.commit.op_class_0::SimdMult              0      0.00%     80.13% # Class of committed instruction
system.cpu.commit.op_class_0::SimdMultAcc            0      0.00%     80.13% # Class of committed instruction
system.cpu.commit.op_class_0::SimdShift             0      0.00%     80.13% # Class of committed instruction
system.cpu.commit.op_class_0::SimdShiftAcc            0      0.00%     80.13% # Class of committed instruction
system.cpu.commit.op_class_0::SimdSqrt              0      0.00%     80.13% # Class of committed instruction
system.cpu.commit.op_class_0::SimdFloatAdd            0      0.00%     80.13% # Class of committed instruction
system.cpu.commit.op_class_0::SimdFloatAlu            0      0.00%     80.13% # Class of committed instruction
system.cpu.commit.op_class_0::SimdFloatCmp            0      0.00%     80.13% # Class of committed instruction
system.cpu.commit.op_class_0::SimdFloatCvt            0      0.00%     80.13% # Class of committed instruction
system.cpu.commit.op_class_0::SimdFloatDiv            0      0.00%     80.13% # Class of committed instruction
system.cpu.commit.op_class_0::SimdFloatMisc            0      0.00%     80.13% # Class of committed instruction
system.cpu.commit.op_class_0::SimdFloatMult            0      0.00%     80.13% # Class of committed instruction
system.cpu.commit.op_class_0::SimdFloatMultAcc            0      0.00%     80.13% # Class of committed instruction
system.cpu.commit.op_class_0::SimdFloatSqrt            0      0.00%     80.13% # Class of committed instruction
system.cpu.commit.op_class_0::MemRead         7744924     15.31%     95.44% # Class of committed instruction
system.cpu.commit.op_class_0::MemWrite        2081367      4.11%     99.56% # Class of committed instruction
system.cpu.commit.op_class_0::FloatMemRead       148860      0.29%     99.85% # Class of committed instruction
system.cpu.commit.op_class_0::FloatMemWrite        76246      0.15%    100.00% # Class of committed instruction
system.cpu.commit.op_class_0::IprAccess             0      0.00%    100.00% # Class of committed instruction
system.cpu.commit.op_class_0::InstPrefetch            0      0.00%    100.00% # Class of committed instruction
system.cpu.commit.op_class_0::total          50588199                       # Class of committed instruction
system.cpu.commit.bw_lim_events               1490433                       # number cycles where commit BW limit reached
system.cpu.rob.rob_reads                     77543431                       # The number of ROB reads
system.cpu.rob.rob_writes                   123213028                       # The number of ROB writes
system.cpu.timesIdled                          115266                       # Number of times that the entire CPU went into an idle state and unscheduled itself
system.cpu.idleCycles                        15680605                       # Total number of cycles that the CPU has spent unscheduled due to idling
system.cpu.committedInsts                    27878651                       # Number of Instructions Simulated
system.cpu.committedOps                      50588199                       # Number of Ops (including micro ops) Simulated
system.cpu.cpi                               1.270182                       # CPI: Cycles Per Instruction
system.cpu.cpi_total                         1.270182                       # CPI: Total CPI of All Threads
system.cpu.ipc                               0.787289                       # IPC: Instructions Per Cycle
system.cpu.ipc_total                         0.787289                       # IPC: Total IPC of All Threads
system.cpu.int_regfile_reads                 75289652                       # number of integer regfile reads
system.cpu.int_regfile_writes                45078300                       # number of integer regfile writes
system.cpu.fp_regfile_reads                   1626104                       # number of floating regfile reads
system.cpu.fp_regfile_writes                   785378                       # number of floating regfile writes
system.cpu.cc_regfile_reads                  40222012                       # number of cc regfile reads
system.cpu.cc_regfile_writes                 19247828                       # number of cc regfile writes
system.cpu.misc_regfile_reads                27749610                       # number of misc regfile reads
system.cpu.dcache.prefetcher.pwrStateResidencyTicks::UNDEFINED  17705479000                       # Cumulative time (in ticks) in various power states
system.cpu.dcache.prefetcher.num_hwpf_issued     54466367                       # number of hwpf issued
system.cpu.dcache.prefetcher.pfIdentified     83875566                       # number of prefetch candidates identified
system.cpu.dcache.prefetcher.pfBufferHit     28923701                       # number of redundant prefetches already in prefetch queue
system.cpu.dcache.prefetcher.pfInCache              0                       # number of redundant prefetches already in cache/mshr dropped
system.cpu.dcache.prefetcher.pfRemovedFull           88                       # number of prefetches dropped due to prefetch queue size
system.cpu.dcache.prefetcher.pfSpanPage        950322                       # number of prefetches not generated due to page crossing
system.cpu.dcache.tags.pwrStateResidencyTicks::UNDEFINED  17705479000                       # Cumulative time (in ticks) in various power states
system.cpu.dcache.tags.replacements             31290                       # number of replacements
system.cpu.dcache.tags.tagsinuse           619.621808                       # Cycle average of tags in use
system.cpu.dcache.tags.total_refs            10599927                       # Total number of references to valid blocks.
system.cpu.dcache.tags.sampled_refs             32170                       # Sample count of references to valid blocks.
system.cpu.dcache.tags.avg_refs            329.497265                       # Average number of references to valid blocks.
system.cpu.dcache.tags.warmup_cycle                 0                       # Cycle when the warmup percentage was hit.
system.cpu.dcache.tags.occ_blocks::cpu.data    67.328071                       # Average occupied blocks per requestor
system.cpu.dcache.tags.occ_blocks::cpu.dcache.prefetcher   552.293737                       # Average occupied blocks per requestor
system.cpu.dcache.tags.occ_percent::cpu.data     0.065750                       # Average percentage of cache occupancy
system.cpu.dcache.tags.occ_percent::cpu.dcache.prefetcher     0.539349                       # Average percentage of cache occupancy
system.cpu.dcache.tags.occ_percent::total     0.605099                       # Average percentage of cache occupancy
system.cpu.dcache.tags.occ_task_id_blocks::1022          797                       # Occupied blocks per task id
system.cpu.dcache.tags.occ_task_id_blocks::1024           83                       # Occupied blocks per task id
system.cpu.dcache.tags.age_task_id_blocks_1022::0           93                       # Occupied blocks per task id
system.cpu.dcache.tags.age_task_id_blocks_1022::2           28                       # Occupied blocks per task id
system.cpu.dcache.tags.age_task_id_blocks_1022::3          297                       # Occupied blocks per task id
system.cpu.dcache.tags.age_task_id_blocks_1022::4          379                       # Occupied blocks per task id
system.cpu.dcache.tags.age_task_id_blocks_1024::0           13                       # Occupied blocks per task id
system.cpu.dcache.tags.age_task_id_blocks_1024::2            2                       # Occupied blocks per task id
system.cpu.dcache.tags.age_task_id_blocks_1024::3           11                       # Occupied blocks per task id
system.cpu.dcache.tags.age_task_id_blocks_1024::4           57                       # Occupied blocks per task id
system.cpu.dcache.tags.occ_task_id_percent::1022     0.778320                       # Percentage of cache occupancy per task id
system.cpu.dcache.tags.occ_task_id_percent::1024     0.081055                       # Percentage of cache occupancy per task id
system.cpu.dcache.tags.tag_accesses          21239380                       # Number of tag accesses
system.cpu.dcache.tags.data_accesses         21239380                       # Number of data accesses
system.cpu.dcache.pwrStateResidencyTicks::UNDEFINED  17705479000                       # Cumulative time (in ticks) in various power states
system.cpu.dcache.ReadReq_hits::cpu.data      8443530                       # number of ReadReq hits
system.cpu.dcache.ReadReq_hits::total         8443530                       # number of ReadReq hits
system.cpu.dcache.WriteReq_hits::cpu.data      2157542                       # number of WriteReq hits
[...]
system.feature_extraction_datapath.cache.ReadReq_accesses::total         8876                       # number of ReadReq accesses(hits+misses)
system.feature_extraction_datapath.cache.WriteReq_accesses::feature_extraction_datapath.cache         7501                       # number of WriteReq accesses(hits+misses)
system.feature_extraction_datapath.cache.WriteReq_accesses::total         7501                       # number of WriteReq accesses(hits+misses)
system.feature_extraction_datapath.cache.demand_accesses::feature_extraction_datapath.cache        16377                       # number of demand (read+write) accesses
system.feature_extraction_datapath.cache.demand_accesses::total        16377                       # number of demand (read+write) accesses
system.feature_extraction_datapath.cache.overall_accesses::feature_extraction_datapath.cache        16377                       # number of overall (read+write) accesses
system.feature_extraction_datapath.cache.overall_accesses::total        16377                       # number of overall (read+write) accesses
system.feature_extraction_datapath.cache.ReadReq_miss_rate::feature_extraction_datapath.cache     0.045291                       # miss rate for ReadReq accesses
system.feature_extraction_datapath.cache.ReadReq_miss_rate::total     0.045291                       # miss rate for ReadReq accesses
system.feature_extraction_datapath.cache.WriteReq_miss_rate::feature_extraction_datapath.cache     0.568191                       # miss rate for WriteReq accesses
system.feature_extraction_datapath.cache.WriteReq_miss_rate::total     0.568191                       # miss rate for WriteReq accesses
system.feature_extraction_datapath.cache.demand_miss_rate::feature_extraction_datapath.cache     0.284790                       # miss rate for demand accesses
system.feature_extraction_datapath.cache.demand_miss_rate::total     0.284790                       # miss rate for demand accesses
system.feature_extraction_datapath.cache.overall_miss_rate::feature_extraction_datapath.cache     0.284790                       # miss rate for overall accesses
system.feature_extraction_datapath.cache.overall_miss_rate::total     0.284790                       # miss rate for overall accesses
system.feature_extraction_datapath.cache.ReadReq_avg_miss_latency::feature_extraction_datapath.cache 90604.119403                       # average ReadReq miss latency
system.feature_extraction_datapath.cache.ReadReq_avg_miss_latency::total 90604.119403                       # average ReadReq miss latency
system.feature_extraction_datapath.cache.WriteReq_avg_miss_latency::feature_extraction_datapath.cache 37768.183951                       # average WriteReq miss latency
system.feature_extraction_datapath.cache.WriteReq_avg_miss_latency::total 37768.183951                       # average WriteReq miss latency
system.feature_extraction_datapath.cache.demand_avg_miss_latency::feature_extraction_datapath.cache 42322.224700                       # average overall miss latency
system.feature_extraction_datapath.cache.demand_avg_miss_latency::total 42322.224700                       # average overall miss latency
system.feature_extraction_datapath.cache.overall_avg_miss_latency::feature_extraction_datapath.cache 42322.224700                       # average overall miss latency
system.feature_extraction_datapath.cache.overall_avg_miss_latency::total 42322.224700                       # average overall miss latency
system.feature_extraction_datapath.cache.blocked_cycles::no_mshrs          162                       # number of cycles access was blocked
system.feature_extraction_datapath.cache.blocked_cycles::no_targets            0                       # number of cycles access was blocked
system.feature_extraction_datapath.cache.blocked::no_mshrs          306                       # number of cycles access was blocked
system.feature_extraction_datapath.cache.blocked::no_targets            0                       # number of cycles access was blocked
system.feature_extraction_datapath.cache.avg_blocked_cycles::no_mshrs     0.529412                       # average number of cycles each access was blocked
system.feature_extraction_datapath.cache.avg_blocked_cycles::no_targets          nan                       # average number of cycles each access was blocked
system.feature_extraction_datapath.cache.unused_prefetches           96                       # number of HardPF blocks evicted w/o reference
system.feature_extraction_datapath.cache.writebacks::writebacks          445                       # number of writebacks
system.feature_extraction_datapath.cache.writebacks::total          445                       # number of writebacks
system.feature_extraction_datapath.cache.ReadReq_mshr_hits::feature_extraction_datapath.cache            9                       # number of ReadReq MSHR hits
system.feature_extraction_datapath.cache.ReadReq_mshr_hits::total            9                       # number of ReadReq MSHR hits
system.feature_extraction_datapath.cache.WriteReq_mshr_hits::feature_extraction_datapath.cache         3523                       # number of WriteReq MSHR hits
system.feature_extraction_datapath.cache.WriteReq_mshr_hits::total         3523                       # number of WriteReq MSHR hits
system.feature_extraction_datapath.cache.demand_mshr_hits::feature_extraction_datapath.cache         3532                       # number of demand (read+write) MSHR hits
system.feature_extraction_datapath.cache.demand_mshr_hits::total         3532                       # number of demand (read+write) MSHR hits
system.feature_extraction_datapath.cache.overall_mshr_hits::feature_extraction_datapath.cache         3532                       # number of overall MSHR hits
system.feature_extraction_datapath.cache.overall_mshr_hits::total         3532                       # number of overall MSHR hits
system.feature_extraction_datapath.cache.ReadReq_mshr_misses::feature_extraction_datapath.cache          393                       # number of ReadReq MSHR misses
system.feature_extraction_datapath.cache.ReadReq_mshr_misses::total          393                       # number of ReadReq MSHR misses
system.feature_extraction_datapath.cache.WriteReq_mshr_misses::feature_extraction_datapath.cache          739                       # number of WriteReq MSHR misses
system.feature_extraction_datapath.cache.WriteReq_mshr_misses::total          739                       # number of WriteReq MSHR misses
system.feature_extraction_datapath.cache.HardPFReq_mshr_misses::feature_extraction_datapath.cache.prefetcher         1361                       # number of HardPFReq MSHR misses
system.feature_extraction_datapath.cache.HardPFReq_mshr_misses::total         1361                       # number of HardPFReq MSHR misses
system.feature_extraction_datapath.cache.demand_mshr_misses::feature_extraction_datapath.cache         1132                       # number of demand (read+write) MSHR misses
system.feature_extraction_datapath.cache.demand_mshr_misses::total         1132                       # number of demand (read+write) MSHR misses
system.feature_extraction_datapath.cache.overall_mshr_misses::feature_extraction_datapath.cache         1132                       # number of overall MSHR misses
system.feature_extraction_datapath.cache.overall_mshr_misses::feature_extraction_datapath.cache.prefetcher         1361                       # number of overall MSHR misses
system.feature_extraction_datapath.cache.overall_mshr_misses::total         2493                       # number of overall MSHR misses
system.feature_extraction_datapath.cache.ReadReq_mshr_miss_latency::feature_extraction_datapath.cache     29441856                       # number of ReadReq MSHR miss cycles
system.feature_extraction_datapath.cache.ReadReq_mshr_miss_latency::total     29441856                       # number of ReadReq MSHR miss cycles
system.feature_extraction_datapath.cache.WriteReq_mshr_miss_latency::feature_extraction_datapath.cache     17185000                       # number of WriteReq MSHR miss cycles
system.feature_extraction_datapath.cache.WriteReq_mshr_miss_latency::total     17185000                       # number of WriteReq MSHR miss cycles
system.feature_extraction_datapath.cache.HardPFReq_mshr_miss_latency::feature_extraction_datapath.cache.prefetcher     65165103                       # number of HardPFReq MSHR miss cycles
system.feature_extraction_datapath.cache.HardPFReq_mshr_miss_latency::total     65165103                       # number of HardPFReq MSHR miss cycles
system.feature_extraction_datapath.cache.demand_mshr_miss_latency::feature_extraction_datapath.cache     46626856                       # number of demand (read+write) MSHR miss cycles
system.feature_extraction_datapath.cache.demand_mshr_miss_latency::total     46626856                       # number of demand (read+write) MSHR miss cycles
system.feature_extraction_datapath.cache.overall_mshr_miss_latency::feature_extraction_datapath.cache     46626856                       # number of overall MSHR miss cycles
system.feature_extraction_datapath.cache.overall_mshr_miss_latency::feature_extraction_datapath.cache.prefetcher     65165103                       # number of overall MSHR miss cycles
system.feature_extraction_datapath.cache.overall_mshr_miss_latency::total    111791959                       # number of overall MSHR miss cycles
system.feature_extraction_datapath.cache.ReadReq_mshr_miss_rate::feature_extraction_datapath.cache     0.044277                       # mshr miss rate for ReadReq accesses
system.feature_extraction_datapath.cache.ReadReq_mshr_miss_rate::total     0.044277                       # mshr miss rate for ReadReq accesses
system.feature_extraction_datapath.cache.WriteReq_mshr_miss_rate::feature_extraction_datapath.cache     0.098520                       # mshr miss rate for WriteReq accesses
system.feature_extraction_datapath.cache.WriteReq_mshr_miss_rate::total     0.098520                       # mshr miss rate for WriteReq accesses
system.feature_extraction_datapath.cache.HardPFReq_mshr_miss_rate::feature_extraction_datapath.cache.prefetcher          inf                       # mshr miss rate for HardPFReq accesses
system.feature_extraction_datapath.cache.HardPFReq_mshr_miss_rate::total          inf                       # mshr miss rate for HardPFReq accesses
system.feature_extraction_datapath.cache.demand_mshr_miss_rate::feature_extraction_datapath.cache     0.069121                       # mshr miss rate for demand accesses
system.feature_extraction_datapath.cache.demand_mshr_miss_rate::total     0.069121                       # mshr miss rate for demand accesses
system.feature_extraction_datapath.cache.overall_mshr_miss_rate::feature_extraction_datapath.cache     0.069121                       # mshr miss rate for overall accesses
system.feature_extraction_datapath.cache.overall_mshr_miss_rate::feature_extraction_datapath.cache.prefetcher          inf                       # mshr miss rate for overall accesses
system.feature_extraction_datapath.cache.overall_mshr_miss_rate::total     0.152226                       # mshr miss rate for overall accesses
system.feature_extraction_datapath.cache.ReadReq_avg_mshr_miss_latency::feature_extraction_datapath.cache 74915.664122                       # average ReadReq mshr miss latency
system.feature_extraction_datapath.cache.ReadReq_avg_mshr_miss_latency::total 74915.664122                       # average ReadReq mshr miss latency
system.feature_extraction_datapath.cache.WriteReq_avg_mshr_miss_latency::feature_extraction_datapath.cache 23254.397835                       # average WriteReq mshr miss latency
system.feature_extraction_datapath.cache.WriteReq_avg_mshr_miss_latency::total 23254.397835                       # average WriteReq mshr miss latency
system.feature_extraction_datapath.cache.HardPFReq_avg_mshr_miss_latency::feature_extraction_datapath.cache.prefetcher 47880.310801                       # average HardPFReq mshr miss latency
system.feature_extraction_datapath.cache.HardPFReq_avg_mshr_miss_latency::total 47880.310801                       # average HardPFReq mshr miss latency
system.feature_extraction_datapath.cache.demand_avg_mshr_miss_latency::feature_extraction_datapath.cache 41189.802120                       # average overall mshr miss latency
system.feature_extraction_datapath.cache.demand_avg_mshr_miss_latency::total 41189.802120                       # average overall mshr miss latency
system.feature_extraction_datapath.cache.overall_avg_mshr_miss_latency::feature_extraction_datapath.cache 41189.802120                       # average overall mshr miss latency
system.feature_extraction_datapath.cache.overall_avg_mshr_miss_latency::feature_extraction_datapath.cache.prefetcher 47880.310801                       # average overall mshr miss latency
system.feature_extraction_datapath.cache.overall_avg_mshr_miss_latency::total 44842.342158                       # average overall mshr miss latency
system.membus.snoop_filter.tot_requests       2139460                       # Total number of requests made to the snoop filter.
system.membus.snoop_filter.hit_single_requests      1068864                       # Number of requests hitting in the snoop filter with a single holder of the requested data.
system.membus.snoop_filter.hit_multi_requests         2246                       # Number of requests hitting in the snoop filter with multiple (>1) holders of the requested data.
system.membus.snoop_filter.tot_snoops               0                       # Total number of snoops made to the snoop filter.
system.membus.snoop_filter.hit_single_snoops            0                       # Number of snoops hitting in the snoop filter with a single holder of the requested data.
system.membus.snoop_filter.hit_multi_snoops            0                       # Number of snoops hitting in the snoop filter with multiple (>1) holders of the requested data.
system.membus.pwrStateResidencyTicks::UNDEFINED  17705479000                       # Cumulative time (in ticks) in various power states
system.membus.trans_dist::ReadResp            1070603                       # Transaction distribution
system.membus.trans_dist::WritebackDirty          792                       # Transaction distribution
system.membus.trans_dist::CleanEvict          1067252                       # Transaction distribution
system.membus.trans_dist::UpgradeReq              729                       # Transaction distribution
system.membus.trans_dist::UpgradeResp             727                       # Transaction distribution
system.membus.trans_dist::ReadExReq                83                       # Transaction distribution
system.membus.trans_dist::ReadExResp               83                       # Transaction distribution
system.membus.trans_dist::ReadSharedReq       1070604                       # Transaction distribution
system.membus.pkt_count_system.cpu.icache.mem_side::system.mem_ctrls.port      3107507                       # Packet count per connected master and slave (bytes)
system.membus.pkt_count_system.cpu.icache.mem_side::total      3107507                       # Packet count per connected master and slave (bytes)
system.membus.pkt_count_system.cpu.dcache.mem_side::system.mem_ctrls.port        96900                       # Packet count per connected master and slave (bytes)
system.membus.pkt_count_system.cpu.dcache.mem_side::total        96900                       # Packet count per connected master and slave (bytes)
system.membus.pkt_count_system.feature_extraction_datapath.cache.mem_side::system.mem_ctrls.port         4193                       # Packet count per connected master and slave (bytes)
system.membus.pkt_count_system.feature_extraction_datapath.cache.mem_side::total         4193                       # Packet count per connected master and slave (bytes)
system.membus.pkt_count::total                3208600                       # Packet count per connected master and slave (bytes)
system.membus.pkt_size_system.cpu.icache.mem_side::system.mem_ctrls.port     66304384                       # Cumulative packet size per connected master and slave (bytes)
system.membus.pkt_size_system.cpu.icache.mem_side::total     66304384                       # Cumulative packet size per connected master and slave (bytes)
system.membus.pkt_size_system.cpu.dcache.mem_side::system.mem_ctrls.port      2114944                       # Cumulative packet size per connected master and slave (bytes)
system.membus.pkt_size_system.cpu.dcache.mem_side::total      2114944                       # Cumulative packet size per connected master and slave (bytes)
system.membus.pkt_size_system.feature_extraction_datapath.cache.mem_side::system.mem_ctrls.port        56320                       # Cumulative packet size per connected master and slave (bytes)
system.membus.pkt_size_system.feature_extraction_datapath.cache.mem_side::total        56320                       # Cumulative packet size per connected master and slave (bytes)
system.membus.pkt_size::total                68475648                       # Cumulative packet size per connected master and slave (bytes)
system.membus.snoops                             2273                       # Total snoops (count)
system.membus.snoopTraffic                      98944                       # Total snoop traffic (bytes)
system.membus.snoop_fanout::samples           1071416                       # Request fanout histogram
system.membus.snoop_fanout::mean             0.002862                       # Request fanout histogram
system.membus.snoop_fanout::stdev            0.053418                       # Request fanout histogram
system.membus.snoop_fanout::underflows              0      0.00%      0.00% # Request fanout histogram
system.membus.snoop_fanout::0                 1068350     99.71%     99.71% # Request fanout histogram
system.membus.snoop_fanout::1                    3066      0.29%    100.00% # Request fanout histogram
system.membus.snoop_fanout::2                       0      0.00%    100.00% # Request fanout histogram
system.membus.snoop_fanout::3                       0      0.00%    100.00% # Request fanout histogram
system.membus.snoop_fanout::4                       0      0.00%    100.00% # Request fanout histogram
system.membus.snoop_fanout::5                       0      0.00%    100.00% # Request fanout histogram
system.membus.snoop_fanout::6                       0      0.00%    100.00% # Request fanout histogram
system.membus.snoop_fanout::overflows               0      0.00%    100.00% # Request fanout histogram
system.membus.snoop_fanout::min_value               0                       # Request fanout histogram
system.membus.snoop_fanout::max_value               1                       # Request fanout histogram
system.membus.snoop_fanout::total             1071416                       # Request fanout histogram
system.membus.reqLayer2.occupancy          2339217845                       # Layer occupancy (ticks)
system.membus.reqLayer2.utilization              13.2                       # Layer utilization (%)
system.membus.respLayer1.occupancy         5291543362                       # Layer occupancy (ticks)
system.membus.respLayer1.utilization             29.9                       # Layer utilization (%)
system.membus.respLayer2.occupancy          173939880                       # Layer occupancy (ticks)
system.membus.respLayer2.utilization              1.0                       # Layer utilization (%)
system.membus.respLayer6.occupancy            9775904                       # Layer occupancy (ticks)
system.membus.respLayer6.utilization              0.1                       # Layer utilization (%)

---------- End Simulation Statistics   ----------
