
---------- Begin Simulation Statistics ----------
sim_seconds                                  0.006283                       # Number of seconds simulated
sim_ticks                                  6283384500                       # Number of ticks simulated
final_tick                                 6283384500                       # Number of ticks from beginning of simulation (restored from checkpoints and never reset)
sim_freq                                 1000000000000                       # Frequency of simulated ticks
host_inst_rate                                 107210                       # Simulator instruction rate (inst/s)
host_op_rate                                   182167                       # Simulator op (including micro ops) rate (op/s)
host_tick_rate                               28428973                       # Simulator tick rate (ticks/s)
host_mem_usage                                5312696                       # Number of bytes of host memory used
host_seconds                                   221.02                       # Real time elapsed on the host
sim_insts                                    23695672                       # Number of instructions simulated
sim_ops                                      40262669                       # Number of ops (including micro ops) simulated
system.voltage_domain.voltage                       1                       # Voltage in Volts
system.clk_domain.clock                          1000                       # Clock period in ticks
system.mem_ctrls.pwrStateResidencyTicks::UNDEFINED   6283384500                       # Cumulative time (in ticks) in various power states
system.mem_ctrls.bytes_read::cpu.inst         1269632                       # Number of bytes read from this memory
system.mem_ctrls.bytes_read::cpu.data           33600                       # Number of bytes read from this memory
system.mem_ctrls.bytes_read::cpu.dcache.prefetcher       179712                       # Number of bytes read from this memory
system.mem_ctrls.bytes_read::cpu.icache.prefetcher     10682816                       # Number of bytes read from this memory
system.mem_ctrls.bytes_read::feature_extraction_datapath.cache           64                       # Number of bytes read from this memory
system.mem_ctrls.bytes_read::feature_extraction_datapath.cache.prefetcher         1216                       # Number of bytes read from this memory
system.mem_ctrls.bytes_read::total           12167040                       # Number of bytes read from this memory
system.mem_ctrls.bytes_inst_read::cpu.inst      1269632                       # Number of instructions bytes read from this memory
system.mem_ctrls.bytes_inst_read::total       1269632                       # Number of instructions bytes read from this memory
system.mem_ctrls.bytes_written::writebacks         4608                       # Number of bytes written to this memory
system.mem_ctrls.bytes_written::total            4608                       # Number of bytes written to this memory
system.mem_ctrls.num_reads::cpu.inst            19838                       # Number of read requests responded to by this memory
system.mem_ctrls.num_reads::cpu.data              525                       # Number of read requests responded to by this memory
system.mem_ctrls.num_reads::cpu.dcache.prefetcher         2808                       # Number of read requests responded to by this memory
system.mem_ctrls.num_reads::cpu.icache.prefetcher       166919                       # Number of read requests responded to by this memory
system.mem_ctrls.num_reads::feature_extraction_datapath.cache            1                       # Number of read requests responded to by this memory
system.mem_ctrls.num_reads::feature_extraction_datapath.cache.prefetcher           19                       # Number of read requests responded to by this memory
system.mem_ctrls.num_reads::total              190110                       # Number of read requests responded to by this memory
system.mem_ctrls.num_writes::writebacks            72                       # Number of write requests responded to by this memory
system.mem_ctrls.num_writes::total                 72                       # Number of write requests responded to by this memory
system.mem_ctrls.bw_read::cpu.inst          202061803                       # Total read bandwidth from this memory (bytes/s)
system.mem_ctrls.bw_read::cpu.data            5347437                       # Total read bandwidth from this memory (bytes/s)
system.mem_ctrls.bw_read::cpu.dcache.prefetcher     28601146                       # Total read bandwidth from this memory (bytes/s)
system.mem_ctrls.bw_read::cpu.icache.prefetcher   1700169073                       # Total read bandwidth from this memory (bytes/s)
system.mem_ctrls.bw_read::feature_extraction_datapath.cache        10186                       # Total read bandwidth from this memory (bytes/s)
system.mem_ctrls.bw_read::feature_extraction_datapath.cache.prefetcher       193526                       # Total read bandwidth from this memory (bytes/s)
system.mem_ctrls.bw_read::total            1936383171                       # Total read bandwidth from this memory (bytes/s)
system.mem_ctrls.bw_inst_read::cpu.inst     202061803                       # Instruction read bandwidth from this memory (bytes/s)
system.mem_ctrls.bw_inst_read::total        202061803                       # Instruction read bandwidth from this memory (bytes/s)
system.mem_ctrls.bw_write::writebacks          733363                       # Write bandwidth from this memory (bytes/s)
system.mem_ctrls.bw_write::total               733363                       # Write bandwidth from this memory (bytes/s)
system.mem_ctrls.bw_total::writebacks          733363                       # Total bandwidth to/from this memory (bytes/s)
system.mem_ctrls.bw_total::cpu.inst         202061803                       # Total bandwidth to/from this memory (bytes/s)
system.mem_ctrls.bw_total::cpu.data           5347437                       # Total bandwidth to/from this memory (bytes/s)
system.mem_ctrls.bw_total::cpu.dcache.prefetcher     28601146                       # Total bandwidth to/from this memory (bytes/s)
system.mem_ctrls.bw_total::cpu.icache.prefetcher   1700169073                       # Total bandwidth to/from this memory (bytes/s)
system.mem_ctrls.bw_total::feature_extraction_datapath.cache        10186                       # Total bandwidth to/from this memory (bytes/s)
system.mem_ctrls.bw_total::feature_extraction_datapath.cache.prefetcher       193526                       # Total bandwidth to/from this memory (bytes/s)
system.mem_ctrls.bw_total::total           1937116533                       # Total bandwidth to/from this memory (bytes/s)
system.mem_ctrls.readReqs                      190121                       # Number of read requests accepted
system.mem_ctrls.writeReqs                         72                       # Number of write requests accepted
system.mem_ctrls.readBursts                    190121                       # Number of DRAM read bursts, including those serviced by the write queue
system.mem_ctrls.writeBursts                       72                       # Number of DRAM write bursts, including those merged in the write queue
system.mem_ctrls.bytesReadDRAM               12154496                       # Total number of bytes read from DRAM
system.mem_ctrls.bytesReadWrQ                   13056                       # Total number of bytes read from write queue
system.mem_ctrls.bytesWritten                    3200                       # Total number of bytes written to DRAM
system.mem_ctrls.bytesReadSys                12167744                       # Total read bytes from the system interface side
system.mem_ctrls.bytesWrittenSys                 4608                       # Total written bytes from the system interface side
system.mem_ctrls.servicedByWrQ                    204                       # Number of DRAM read bursts serviced by the write queue
system.mem_ctrls.mergedWrBursts                     0                       # Number of DRAM write bursts merged with an existing one
system.mem_ctrls.neitherReadNorWriteReqs            0                       # Number of requests that are neither read nor write
system.mem_ctrls.perBankRdBursts::0             11753                       # Per bank write bursts
system.mem_ctrls.perBankRdBursts::1              1839                       # Per bank write bursts
system.mem_ctrls.perBankRdBursts::2              6402                       # Per bank write bursts
system.mem_ctrls.perBankRdBursts::3              2051                       # Per bank write bursts
system.mem_ctrls.perBankRdBursts::4              1766                       # Per bank write bursts
system.mem_ctrls.perBankRdBursts::5               135                       # Per bank write bursts
system.mem_ctrls.perBankRdBursts::6                37                       # Per bank write bursts
system.mem_ctrls.perBankRdBursts::7              8884                       # Per bank write bursts
system.mem_ctrls.perBankRdBursts::8                99                       # Per bank write bursts
system.mem_ctrls.perBankRdBursts::9               112                       # Per bank write bursts
system.mem_ctrls.perBankRdBursts::10            17918                       # Per bank write bursts
system.mem_ctrls.perBankRdBursts::11            27143                       # Per bank write bursts
system.mem_ctrls.perBankRdBursts::12            31868                       # Per bank write bursts
system.mem_ctrls.perBankRdBursts::13            32786                       # Per bank write bursts
system.mem_ctrls.perBankRdBursts::14            46806                       # Per bank write bursts
system.mem_ctrls.perBankRdBursts::15              315                       # Per bank write bursts
system.mem_ctrls.perBankWrBursts::0                 0                       # Per bank write bursts
system.mem_ctrls.perBankWrBursts::1                 0                       # Per bank write bursts
system.mem_ctrls.perBankWrBursts::2                 8                       # Per bank write bursts
system.mem_ctrls.perBankWrBursts::3                 4                       # Per bank write bursts
system.mem_ctrls.perBankWrBursts::4                 0                       # Per bank write bursts
system.mem_ctrls.perBankWrBursts::5                 0                       # Per bank write bursts
system.mem_ctrls.perBankWrBursts::6                 0                       # Per bank write bursts
system.mem_ctrls.perBankWrBursts::7                 0                       # Per bank write bursts
system.mem_ctrls.perBankWrBursts::8                 0                       # Per bank write bursts
system.mem_ctrls.perBankWrBursts::9                 0                       # Per bank write bursts
system.mem_ctrls.perBankWrBursts::10                0                       # Per bank write bursts
system.mem_ctrls.perBankWrBursts::11                0                       # Per bank write bursts
system.mem_ctrls.perBankWrBursts::12                0                       # Per bank write bursts
system.mem_ctrls.perBankWrBursts::13                0                       # Per bank write bursts
system.mem_ctrls.perBankWrBursts::14               24                       # Per bank write bursts
system.mem_ctrls.perBankWrBursts::15               14                       # Per bank write bursts
system.mem_ctrls.numRdRetry                         0                       # Number of times read queue was full causing retry
system.mem_ctrls.numWrRetry                         0                       # Number of times write queue was full causing retry
system.mem_ctrls.totGap                    6283369522                       # Total gap between requests
system.mem_ctrls.readPktSize::0                     0                       # Read request sizes (log2)
system.mem_ctrls.readPktSize::1                     0                       # Read request sizes (log2)
system.mem_ctrls.readPktSize::2                     0                       # Read request sizes (log2)
system.mem_ctrls.readPktSize::3                     0                       # Read request sizes (log2)
system.mem_ctrls.readPktSize::4                     0                       # Read request sizes (log2)
system.mem_ctrls.readPktSize::5                     0                       # Read request sizes (log2)
system.mem_ctrls.readPktSize::6                190121                       # Read request sizes (log2)
system.mem_ctrls.writePktSize::0                    0                       # Write request sizes (log2)
system.mem_ctrls.writePktSize::1                    0                       # Write request sizes (log2)
system.mem_ctrls.writePktSize::2                    0                       # Write request sizes (log2)
system.mem_ctrls.writePktSize::3                    0                       # Write request sizes (log2)
system.mem_ctrls.writePktSize::4                    0                       # Write request sizes (log2)
system.mem_ctrls.writePktSize::5                    0                       # Write request sizes (log2)
system.mem_ctrls.writePktSize::6                   72                       # Write request sizes (log2)
system.mem_ctrls.rdQLenPdf::0                   21395                       # What read queue length does an incoming req see
system.mem_ctrls.rdQLenPdf::1                   21976                       # What read queue length does an incoming req see
system.mem_ctrls.rdQLenPdf::2                   21474                       # What read queue length does an incoming req see
system.mem_ctrls.rdQLenPdf::3                   18452                       # What read queue length does an incoming req see
system.mem_ctrls.rdQLenPdf::4                   15853                       # What read queue length does an incoming req see
system.mem_ctrls.rdQLenPdf::5                   14153                       # What read queue length does an incoming req see
system.mem_ctrls.rdQLenPdf::6                   13241                       # What read queue length does an incoming req see
system.mem_ctrls.rdQLenPdf::7                   18308                       # What read queue length does an incoming req see
system.mem_ctrls.rdQLenPdf::8                   13745                       # What read queue length does an incoming req see
system.mem_ctrls.rdQLenPdf::9                    9407                       # What read queue length does an incoming req see
system.mem_ctrls.rdQLenPdf::10                   7674                       # What read queue length does an incoming req see
system.mem_ctrls.rdQLenPdf::11                   6184                       # What read queue length does an incoming req see
system.mem_ctrls.rdQLenPdf::12                   4081                       # What read queue length does an incoming req see
system.mem_ctrls.rdQLenPdf::13                   2449                       # What read queue length does an incoming req see
system.mem_ctrls.rdQLenPdf::14                    543                       # What read queue length does an incoming req see
system.mem_ctrls.rdQLenPdf::15                    243                       # What read queue length does an incoming req see
system.mem_ctrls.rdQLenPdf::16                    226                       # What read queue length does an incoming req see
system.mem_ctrls.rdQLenPdf::17                    188                       # What read queue length does an incoming req see
system.mem_ctrls.rdQLenPdf::18                    101                       # What read queue length does an incoming req see
system.mem_ctrls.rdQLenPdf::19                     94                       # What read queue length does an incoming req see
system.mem_ctrls.rdQLenPdf::20                     39                       # What read queue length does an incoming req see
system.mem_ctrls.rdQLenPdf::21                     29                       # What read queue length does an incoming req see
system.mem_ctrls.rdQLenPdf::22                     27                       # What read queue length does an incoming req see
system.mem_ctrls.rdQLenPdf::23                     13                       # What read queue length does an incoming req see
system.mem_ctrls.rdQLenPdf::24                     11                       # What read queue length does an incoming req see
system.mem_ctrls.rdQLenPdf::25                      4                       # What read queue length does an incoming req see
system.mem_ctrls.rdQLenPdf::26                      5                       # What read queue length does an incoming req see
system.mem_ctrls.rdQLenPdf::27                      2                       # What read queue length does an incoming req see
system.mem_ctrls.rdQLenPdf::28                      0                       # What read queue length does an incoming req see
system.mem_ctrls.rdQLenPdf::29                      0                       # What read queue length does an incoming req see
system.mem_ctrls.rdQLenPdf::30                      0                       # What read queue length does an incoming req see
system.mem_ctrls.rdQLenPdf::31                      0                       # What read queue length does an incoming req see
system.mem_ctrls.wrQLenPdf::0                       1                       # What write queue length does an incoming req see
system.mem_ctrls.wrQLenPdf::1                       1                       # What write queue length does an incoming req see
system.mem_ctrls.wrQLenPdf::2                       1                       # What write queue length does an incoming req see
system.mem_ctrls.wrQLenPdf::3                       1                       # What write queue length does an incoming req see
system.mem_ctrls.wrQLenPdf::4                       1                       # What write queue length does an incoming req see
system.mem_ctrls.wrQLenPdf::5                       1                       # What write queue length does an incoming req see
system.mem_ctrls.wrQLenPdf::6                       1                       # What write queue length does an incoming req see
system.mem_ctrls.wrQLenPdf::7                       1                       # What write queue length does an incoming req see
system.mem_ctrls.wrQLenPdf::8                       1                       # What write queue length does an incoming req see
system.mem_ctrls.wrQLenPdf::9                       1                       # What write queue length does an incoming req see
system.mem_ctrls.wrQLenPdf::10                      1                       # What write queue length does an incoming req see
system.mem_ctrls.wrQLenPdf::11                      1                       # What write queue length does an incoming req see
system.mem_ctrls.wrQLenPdf::12                      1                       # What write queue length does an incoming req see
system.mem_ctrls.wrQLenPdf::13                      1                       # What write queue length does an incoming req see
system.mem_ctrls.wrQLenPdf::14                      1                       # What write queue length does an incoming req see
system.mem_ctrls.wrQLenPdf::15                      2                       # What write queue length does an incoming req see
system.mem_ctrls.wrQLenPdf::16                      2                       # What write queue length does an incoming req see
system.mem_ctrls.wrQLenPdf::17                      2                       # What write queue length does an incoming req see
system.mem_ctrls.wrQLenPdf::18                      4                       # What write queue length does an incoming req see
system.mem_ctrls.wrQLenPdf::19                      4                       # What write queue length does an incoming req see
system.mem_ctrls.wrQLenPdf::20                      4                       # What write queue length does an incoming req see
system.mem_ctrls.wrQLenPdf::21                      4                       # What write queue length does an incoming req see
system.mem_ctrls.wrQLenPdf::22                      3                       # What write queue length does an incoming req see
system.mem_ctrls.wrQLenPdf::23                      3                       # What write queue length does an incoming req see
system.mem_ctrls.wrQLenPdf::24                      3                       # What write queue length does an incoming req see
system.mem_ctrls.wrQLenPdf::25                      3                       # What write queue length does an incoming req see
system.mem_ctrls.wrQLenPdf::26                      3                       # What write queue length does an incoming req see
system.mem_ctrls.wrQLenPdf::27                      3                       # What write queue length does an incoming req see
system.mem_ctrls.wrQLenPdf::28                      3                       # What write queue length does an incoming req see
system.mem_ctrls.wrQLenPdf::29                      3                       # What write queue length does an incoming req see
system.mem_ctrls.wrQLenPdf::30                      3                       # What write queue length does an incoming req see
system.mem_ctrls.wrQLenPdf::31                      3                       # What write queue length does an incoming req see
system.mem_ctrls.wrQLenPdf::32                      3                       # What write queue length does an incoming req see
system.mem_ctrls.wrQLenPdf::33                      2                       # What write queue length does an incoming req see
system.mem_ctrls.wrQLenPdf::34                      0                       # What write queue length does an incoming req see
system.mem_ctrls.wrQLenPdf::35                      0                       # What write queue length does an incoming req see
system.mem_ctrls.wrQLenPdf::36                      0                       # What write queue length does an incoming req see
system.mem_ctrls.wrQLenPdf::37                      0                       # What write queue length does an incoming req see
system.mem_ctrls.wrQLenPdf::38                      0                       # What write queue length does an incoming req see
system.mem_ctrls.wrQLenPdf::39                      0                       # What write queue length does an incoming req see
system.mem_ctrls.wrQLenPdf::40                      0                       # What write queue length does an incoming req see
system.mem_ctrls.wrQLenPdf::41                      0                       # What write queue length does an incoming req see
system.mem_ctrls.wrQLenPdf::42                      0                       # What write queue length does an incoming req see
system.mem_ctrls.wrQLenPdf::43                      0                       # What write queue length does an incoming req see
system.mem_ctrls.wrQLenPdf::44                      0                       # What write queue length does an incoming req see
system.mem_ctrls.wrQLenPdf::45                      0                       # What write queue length does an incoming req see
system.mem_ctrls.wrQLenPdf::46                      0                       # What write queue length does an incoming req see
system.mem_ctrls.wrQLenPdf::47                      0                       # What write queue length does an incoming req see
system.mem_ctrls.wrQLenPdf::48                      0                       # What write queue length does an incoming req see
system.mem_ctrls.wrQLenPdf::49                      0                       # What write queue length does an incoming req see
system.mem_ctrls.wrQLenPdf::50                      0                       # What write queue length does an incoming req see
system.mem_ctrls.wrQLenPdf::51                      0                       # What write queue length does an incoming req see
system.mem_ctrls.wrQLenPdf::52                      0                       # What write queue length does an incoming req see
system.mem_ctrls.wrQLenPdf::53                      0                       # What write queue length does an incoming req see
system.mem_ctrls.wrQLenPdf::54                      0                       # What write queue length does an incoming req see
system.mem_ctrls.wrQLenPdf::55                      0                       # What write queue length does an incoming req see
system.mem_ctrls.wrQLenPdf::56                      0                       # What write queue length does an incoming req see
system.mem_ctrls.wrQLenPdf::57                      0                       # What write queue length does an incoming req see
system.mem_ctrls.wrQLenPdf::58                      0                       # What write queue length does an incoming req see
system.mem_ctrls.wrQLenPdf::59                      0                       # What write queue length does an incoming req see
system.mem_ctrls.wrQLenPdf::60                      0                       # What write queue length does an incoming req see
system.mem_ctrls.wrQLenPdf::61                      0                       # What write queue length does an incoming req see
system.mem_ctrls.wrQLenPdf::62                      0                       # What write queue length does an incoming req see
system.mem_ctrls.wrQLenPdf::63                      0                       # What write queue length does an incoming req see
system.mem_ctrls.bytesPerActivate::samples        19723                       # Bytes accessed per row activation
system.mem_ctrls.bytesPerActivate::mean    616.243776                       # Bytes accessed per row activation
system.mem_ctrls.bytesPerActivate::gmean   496.917404                       # Bytes accessed per row activation
system.mem_ctrls.bytesPerActivate::stdev   316.647609                       # Bytes accessed per row activation
system.mem_ctrls.bytesPerActivate::0-127          996      5.05%      5.05% # Bytes accessed per row activation
system.mem_ctrls.bytesPerActivate::128-255         2405     12.19%     17.24% # Bytes accessed per row activation
system.mem_ctrls.bytesPerActivate::256-383         1764      8.94%     26.19% # Bytes accessed per row activation
system.mem_ctrls.bytesPerActivate::384-511         1459      7.40%     33.59% # Bytes accessed per row activation
system.mem_ctrls.bytesPerActivate::512-639         2286     11.59%     45.18% # Bytes accessed per row activation
system.mem_ctrls.bytesPerActivate::640-767         3408     17.28%     62.46% # Bytes accessed per row activation
system.mem_ctrls.bytesPerActivate::768-895         2184     11.07%     73.53% # Bytes accessed per row activation
system.mem_ctrls.bytesPerActivate::896-1023          489      2.48%     76.01% # Bytes accessed per row activation
system.mem_ctrls.bytesPerActivate::1024-1151         4732     23.99%    100.00% # Bytes accessed per row activation
system.mem_ctrls.bytesPerActivate::total        19723                       # Bytes accessed per row activation
system.mem_ctrls.rdPerTurnAround::samples            3                       # Reads before turning the bus around for writes
system.mem_ctrls.rdPerTurnAround::mean          63269                       # Reads before turning the bus around for writes
system.mem_ctrls.rdPerTurnAround::gmean   6155.003736                       # Reads before turning the bus around for writes
system.mem_ctrls.rdPerTurnAround::stdev  107450.786470                       # Reads before turning the bus around for writes
system.mem_ctrls.rdPerTurnAround::0-8191            2     66.67%     66.67% # Reads before turning the bus around for writes
system.mem_ctrls.rdPerTurnAround::180224-188415            1     33.33%    100.00% # Reads before turning the bus around for writes
system.mem_ctrls.rdPerTurnAround::total             3                       # Reads before turning the bus around for writes
system.mem_ctrls.wrPerTurnAround::samples            3                       # Writes before turning the bus around for reads
system.mem_ctrls.wrPerTurnAround::mean      16.666667                       # Writes before turning the bus around for reads
system.mem_ctrls.wrPerTurnAround::gmean     16.640671                       # Writes before turning the bus around for reads
system.mem_ctrls.wrPerTurnAround::stdev      1.154701                       # Writes before turning the bus around for reads
system.mem_ctrls.wrPerTurnAround::16                2     66.67%     66.67% # Writes before turning the bus around for reads
system.mem_ctrls.wrPerTurnAround::18                1     33.33%    100.00% # Writes before turning the bus around for reads
system.mem_ctrls.wrPerTurnAround::total             3                       # Writes before turning the bus around for reads
system.mem_ctrls.totQLat                   7513117240                       # Total ticks spent queuing
system.mem_ctrls.totMemAccLat             11074004740                       # Total ticks spent from burst creation until serviced by the DRAM
system.mem_ctrls.totBusLat                  949570000                       # Total ticks spent in databus transfers
system.mem_ctrls.avgQLat                     39560.00                       # Average queueing delay per DRAM burst
system.mem_ctrls.avgBusLat                    4999.92                       # Average bus latency per DRAM burst
system.mem_ctrls.avgMemAccLat                58309.71                       # Average memory access latency per DRAM burst
system.mem_ctrls.avgRdBW                      1934.39                       # Average DRAM read bandwidth in MiByte/s
system.mem_ctrls.avgWrBW                         0.51                       # Average achieved write bandwidth in MiByte/s
system.mem_ctrls.avgRdBWSys                   1936.50                       # Average system read bandwidth in MiByte/s
system.mem_ctrls.avgWrBWSys                      0.73                       # Average system write bandwidth in MiByte/s
system.mem_ctrls.peakBW                      12800.00                       # Theoretical peak bandwidth in MiByte/s
system.mem_ctrls.busUtil                        15.12                       # Data bus utilization in percentage
system.mem_ctrls.busUtilRead                    15.11                       # Data bus utilization in percentage for reads
system.mem_ctrls.busUtilWrite                    0.00                       # Data bus utilization in percentage for writes
system.mem_ctrls.avgRdQLen                       4.13                       # Average read queue length when enqueuing
system.mem_ctrls.avgWrQLen                      30.33                       # Average write queue length when enqueuing
system.mem_ctrls.readRowHits                   170187                       # Number of row buffer hits during reads
system.mem_ctrls.writeRowHits                      47                       # Number of row buffer hits during writes
system.mem_ctrls.readRowHitRate                 89.61                       # Row buffer hit rate for reads
system.mem_ctrls.writeRowHitRate                65.28                       # Row buffer hit rate for writes
system.mem_ctrls.avgGap                      33036.81                       # Average gap between requests
system.mem_ctrls.pageHitRate                    89.60                       # Row buffer hit rate, read and write combined
system.mem_ctrls_0.actEnergy                 27217680                       # Energy for activate commands per rank (pJ)
system.mem_ctrls_0.preEnergy                 14443770                       # Energy for precharge commands per rank (pJ)
system.mem_ctrls_0.readEnergy               234648960                       # Energy for read commands per rank (pJ)
system.mem_ctrls_0.writeEnergy                  62640                       # Energy for write commands per rank (pJ)
system.mem_ctrls_0.refreshEnergy         222499680.000000                       # Energy for refresh commands per rank (pJ)
system.mem_ctrls_0.actBackEnergy            301179450                       # Energy for active background per rank (pJ)
system.mem_ctrls_0.preBackEnergy              4757280                       # Energy for precharge background per rank (pJ)
system.mem_ctrls_0.actPowerDownEnergy       905121240                       # Energy for active power-down per rank (pJ)
system.mem_ctrls_0.prePowerDownEnergy        61968480                       # Energy for precharge power-down per rank (pJ)
system.mem_ctrls_0.selfRefreshEnergy        831965940                       # Energy for self refresh per rank (pJ)
system.mem_ctrls_0.totalEnergy             2603865120                       # Total energy per rank (pJ)
system.mem_ctrls_0.averagePower            414.404867                       # Core power per rank (mW)
system.mem_ctrls_0.totalIdleTime           5610606162                       # Total Idle time Per DRAM Rank
system.mem_ctrls_0.memoryStateTime::IDLE      2360517                       # Time in different power states
system.mem_ctrls_0.memoryStateTime::REF      94126000                       # Time in different power states
system.mem_ctrls_0.memoryStateTime::SREF   3464223250                       # Time in different power states
system.mem_ctrls_0.memoryStateTime::PRE_PDN    161456823                       # Time in different power states
system.mem_ctrls_0.memoryStateTime::ACT     576291821                       # Time in different power states
system.mem_ctrls_0.memoryStateTime::ACT_PDN   1984926089                       # Time in different power states
system.mem_ctrls_1.actEnergy                113654520                       # Energy for activate commands per rank (pJ)
system.mem_ctrls_1.preEnergy                 60382245                       # Energy for precharge commands per rank (pJ)
system.mem_ctrls_1.readEnergy              1121301300                       # Energy for read commands per rank (pJ)
system.mem_ctrls_1.writeEnergy                 198360                       # Energy for write commands per rank (pJ)
system.mem_ctrls_1.refreshEnergy         221270400.000000                       # Energy for refresh commands per rank (pJ)
system.mem_ctrls_1.actBackEnergy            773049960                       # Energy for active background per rank (pJ)
system.mem_ctrls_1.preBackEnergy              4788480                       # Energy for precharge background per rank (pJ)
system.mem_ctrls_1.actPowerDownEnergy       484916100                       # Energy for active power-down per rank (pJ)
system.mem_ctrls_1.prePowerDownEnergy         9419040                       # Energy for precharge power-down per rank (pJ)
system.mem_ctrls_1.selfRefreshEnergy        838149780                       # Energy for self refresh per rank (pJ)
system.mem_ctrls_1.totalEnergy             3627130185                       # Total energy per rank (pJ)
system.mem_ctrls_1.averagePower            577.257398                       # Core power per rank (mW)
system.mem_ctrls_1.totalIdleTime           4575369225                       # Total Idle time Per DRAM Rank
system.mem_ctrls_1.memoryStateTime::IDLE      1655000                       # Time in different power states
system.mem_ctrls_1.memoryStateTime::REF      93612000                       # Time in different power states
system.mem_ctrls_1.memoryStateTime::SREF   3487689007                       # Time in different power states
system.mem_ctrls_1.memoryStateTime::PRE_PDN     24527960                       # Time in different power states
system.mem_ctrls_1.memoryStateTime::ACT    1612748275                       # Time in different power states
system.mem_ctrls_1.memoryStateTime::ACT_PDN   1063152258                       # Time in different power states
system.pwrStateResidencyTicks::UNDEFINED   6283384500                       # Cumulative time (in ticks) in various power states
system.cpu.branchPred.lookups                 8056119                       # Number of BP lookups
system.cpu.branchPred.condPredicted           8056119                       # Number of conditional branches predicted
system.cpu.branchPred.condIncorrect             92257                       # Number of conditional branches incorrect
system.cpu.branchPred.BTBLookups              7839028                       # Number of BTB lookups
system.cpu.branchPred.BTBHits                       0                       # Number of BTB hits
system.cpu.branchPred.BTBCorrect                    0                       # Number of correct BTB predictions (this stat may not work properly.
system.cpu.branchPred.BTBHitPct              0.000000                       # BTB Hit Percentage
system.cpu.branchPred.usedRAS                   69067                       # Number of times the RAS was used to get a target.
system.cpu.branchPred.RASInCorrect              13559                       # Number of incorrect RAS predictions.
system.cpu.branchPred.indirectLookups         7839028                       # Number of indirect predictor lookups.
system.cpu.branchPred.indirectHits            7268901                       # Number of indirect target hits.
system.cpu.branchPred.indirectMisses           570127                       # Number of indirect misses.
system.cpu.branchPredindirectMispredicted        64954                       # Number of mispredicted indirect branches.
system.cpu_voltage_domain.voltage                   1                       # Voltage in Volts
system.cpu_clk_domain.clock                       500                       # Clock period in ticks
system.cpu.dtb.walker.pwrStateResidencyTicks::UNDEFINED   6283384500                       # Cumulative time (in ticks) in various power states
system.cpu.dtb.rdAccesses                     7835050                       # TLB accesses on read requests
system.cpu.dtb.wrAccesses                      463373                       # TLB accesses on write requests
system.cpu.dtb.rdMisses                         11746                       # TLB misses on read requests
system.cpu.dtb.wrMisses                          2301                       # TLB misses on write requests
system.cpu.apic_clk_domain.clock                 8000                       # Clock period in ticks
system.cpu.interrupts.pwrStateResidencyTicks::UNDEFINED   6283384500                       # Cumulative time (in ticks) in various power states
system.cpu.itb.walker.pwrStateResidencyTicks::UNDEFINED   6283384500                       # Cumulative time (in ticks) in various power states
system.cpu.itb.rdAccesses                           0                       # TLB accesses on read requests
system.cpu.itb.wrAccesses                      636755                       # TLB accesses on write requests
system.cpu.itb.rdMisses                             0                       # TLB misses on read requests
system.cpu.itb.wrMisses                           385                       # TLB misses on write requests
system.cpu.workload.numSyscalls                   782                       # Number of system calls
system.cpu.pwrStateResidencyTicks::ON      6283384500                       # Cumulative time (in ticks) in various power states
system.cpu.numCycles                         12566770                       # number of cpu cycles simulated
system.cpu.numWorkItemsStarted                      0                       # number of work items this cpu started
system.cpu.numWorkItemsCompleted                    0                       # number of work items this cpu completed
system.cpu.fetch.icacheStallCycles            1272507                       # Number of cycles fetch is stalled on an Icache miss
system.cpu.fetch.Insts                       25830322                       # Number of instructions fetch has processed
system.cpu.fetch.Branches                     8056119                       # Number of branches that fetch encountered
system.cpu.fetch.predictedBranches            7337968                       # Number of branches that fetch has predicted taken
system.cpu.fetch.Cycles                       8492915                       # Number of cycles fetch has run and was not squashing or blocked
system.cpu.fetch.SquashCycles                  185112                       # Number of cycles fetch has spent squashing
system.cpu.fetch.MiscStallCycles                  464                       # Number of cycles fetch has spent waiting on interrupts, or bad addresses, or out of MSHRs
system.cpu.fetch.PendingTrapStallCycles          1560                       # Number of stall cycles due to pending traps
system.cpu.fetch.PendingQuiesceStallCycles           34                       # Number of stall cycles due to pending quiesce instructions
system.cpu.fetch.IcacheWaitRetryStallCycles          233                       # Number of stall cycles due to full MSHR
system.cpu.fetch.CacheLines                    636442                       # Number of cache lines fetched
system.cpu.fetch.IcacheSquashes                 27715                       # Number of outstanding Icache misses that were squashed
system.cpu.fetch.rateDist::samples            9860269                       # Number of instructions fetched each cycle (Total)
system.cpu.fetch.rateDist::mean              4.484235                       # Number of instructions fetched each cycle (Total)
system.cpu.fetch.rateDist::stdev             2.110345                       # Number of instructions fetched each cycle (Total)
system.cpu.fetch.rateDist::underflows               0      0.00%      0.00% # Number of instructions fetched each cycle (Total)
system.cpu.fetch.rateDist::0                  1428281     14.49%     14.49% # Number of instructions fetched each cycle (Total)
system.cpu.fetch.rateDist::1                    89755      0.91%     15.40% # Number of instructions fetched each cycle (Total)
system.cpu.fetch.rateDist::2                    76102      0.77%     16.17% # Number of instructions fetched each cycle (Total)
system.cpu.fetch.rateDist::3                    66562      0.68%     16.84% # Number of instructions fetched each cycle (Total)
system.cpu.fetch.rateDist::4                   102253      1.04%     17.88% # Number of instructions fetched each cycle (Total)
system.cpu.fetch.rateDist::5                  7063133     71.63%     89.51% # Number of instructions fetched each cycle (Total)
system.cpu.fetch.rateDist::6                    76096      0.77%     90.28% # Number of instructions fetched each cycle (Total)
system.cpu.fetch.rateDist::7                    71834      0.73%     91.01% # Number of instructions fetched each cycle (Total)
system.cpu.fetch.rateDist::8                   886253      8.99%    100.00% # Number of instructions fetched each cycle (Total)
system.cpu.fetch.rateDist::overflows                0      0.00%    100.00% # Number of instructions fetched each cycle (Total)
system.cpu.fetch.rateDist::min_value                0                       # Number of instructions fetched each cycle (Total)
system.cpu.fetch.rateDist::max_value                8                       # Number of instructions fetched each cycle (Total)
system.cpu.fetch.rateDist::total              9860269                       # Number of instructions fetched each cycle (Total)
system.cpu.fetch.branchRate                  0.641065                       # Number of branch fetches per cycle
system.cpu.fetch.rate                        2.055446                       # Number of inst fetches per cycle
system.cpu.decode.IdleCycles                  1166335                       # Number of cycles decode is idle
system.cpu.decode.BlockedCycles                283764                       # Number of cycles decode is blocked
system.cpu.decode.RunCycles                   8255649                       # Number of cycles decode is running
system.cpu.decode.UnblockCycles                 61965                       # Number of cycles decode is unblocking
system.cpu.decode.SquashCycles                  92556                       # Number of cycles decode is squashing
system.cpu.decode.DecodedInsts               43733882                       # Number of instructions handled by decode
system.cpu.rename.SquashCycles                  92556                       # Number of cycles rename is squashing
system.cpu.rename.IdleCycles                  1223702                       # Number of cycles rename is idle
system.cpu.rename.BlockCycles                  262254                       # Number of cycles rename is blocking
system.cpu.rename.serializeStallCycles          18472                       # count of cycles rename stalled for serializing inst
system.cpu.rename.RunCycles                   8254249                       # Number of cycles rename is running
system.cpu.rename.UnblockCycles                  9036                       # Number of cycles rename is unblocking
system.cpu.rename.RenamedInsts               43339632                       # Number of instructions processed by rename
system.cpu.rename.ROBFullEvents                   476                       # Number of times rename has blocked due to ROB full
system.cpu.rename.IQFullEvents                   3066                       # Number of times rename has blocked due to IQ full
system.cpu.rename.LQFullEvents                      2                       # Number of times rename has blocked due to LQ full
system.cpu.rename.SQFullEvents                   1075                       # Number of times rename has blocked due to SQ full
system.cpu.rename.RenamedOperands            51421135                       # Number of destination operands rename has renamed
system.cpu.rename.RenameLookups             118902004                       # Number of register rename lookups that rename has made
system.cpu.rename.int_rename_lookups         54349100                       # Number of integer rename lookups
system.cpu.rename.fp_rename_lookups            346811                       # Number of floating rename lookups
system.cpu.rename.CommittedMaps              47982213                       # Number of HB maps that are committed
system.cpu.rename.UndoneMaps                  3438922                       # Number of HB maps that are undone due to squashing
system.cpu.rename.serializingInsts               1335                       # count of serializing insts renamed
system.cpu.rename.tempSerializingInsts           1337                       # count of temporary serializing insts renamed
system.cpu.rename.skidInsts                     40198                       # count of insts added to the skid buffer
system.cpu.memDep0.insertedLoads              7959474                       # Number of loads inserted to the mem dependence unit.
system.cpu.memDep0.insertedStores              585224                       # Number of stores inserted to the mem dependence unit.
system.cpu.memDep0.conflictingLoads             49547                       # Number of conflicting loads.
system.cpu.memDep0.conflictingStores            14219                       # Number of conflicting stores.
system.cpu.iq.iqInstsAdded                   42476417                       # Number of instructions added to the IQ (excludes non-spec)
system.cpu.iq.iqNonSpecInstsAdded                5578                       # Number of non-speculative instructions added to the IQ
system.cpu.iq.iqInstsIssued                  41720612                       # Number of instructions issued
system.cpu.iq.iqSquashedInstsIssued             23121                       # Number of squashed instructions issued
system.cpu.iq.iqSquashedInstsExamined         2219325                       # Number of squashed instructions iterated over during squash; mainly for profiling
system.cpu.iq.iqSquashedOperandsExamined      3348678                       # Number of squashed operands that are examined and possibly removed from graph
system.cpu.iq.iqSquashedNonSpecRemoved           4796                       # Number of squashed non-spec instructions that were removed
system.cpu.iq.issued_per_cycle::samples       9860269                       # Number of insts issued each cycle
system.cpu.iq.issued_per_cycle::mean         4.231184                       # Number of insts issued each cycle
system.cpu.iq.issued_per_cycle::stdev        1.841899                       # Number of insts issued each cycle
system.cpu.iq.issued_per_cycle::underflows            0      0.00%      0.00% # Number of insts issued each cycle
system.cpu.iq.issued_per_cycle::0             1217560     12.35%     12.35% # Number of insts issued each cycle
system.cpu.iq.issued_per_cycle::1              218540      2.22%     14.56% # Number of insts issued each cycle
system.cpu.iq.issued_per_cycle::2              270827      2.75%     17.31% # Number of insts issued each cycle
system.cpu.iq.issued_per_cycle::3              229676      2.33%     19.64% # Number of insts issued each cycle
system.cpu.iq.issued_per_cycle::4              215335      2.18%     21.82% # Number of insts issued each cycle
system.cpu.iq.issued_per_cycle::5             7194304     72.96%     94.79% # Number of insts issued each cycle
system.cpu.iq.issued_per_cycle::6              257553      2.61%     97.40% # Number of insts issued each cycle
system.cpu.iq.issued_per_cycle::7              158580      1.61%     99.01% # Number of insts issued each cycle
system.cpu.iq.issued_per_cycle::8               97894      0.99%    100.00% # Number of insts issued each cycle
system.cpu.iq.issued_per_cycle::overflows            0      0.00%    100.00% # Number of insts issued each cycle
system.cpu.iq.issued_per_cycle::min_value            0                       # Number of insts issued each cycle
system.cpu.iq.issued_per_cycle::max_value            8                       # Number of insts issued each cycle
system.cpu.iq.issued_per_cycle::total         9860269                       # Number of insts issued each cycle
system.cpu.iq.fu_full::No_OpClass                   0      0.00%      0.00% # attempts to use FU when none available
system.cpu.iq.fu_full::IntAlu                   87129     82.21%     82.21% # attempts to use FU when none available
system.cpu.iq.fu_full::IntMult                      0      0.00%     82.21% # attempts to use FU when none available
system.cpu.iq.fu_full::IntDiv                       0      0.00%     82.21% # attempts to use FU when none available
system.cpu.iq.fu_full::FloatAdd                   828      0.78%     82.99% # attempts to use FU when none available
system.cpu.iq.fu_full::FloatCmp                     0      0.00%     82.99% # attempts to use FU when none available
system.cpu.iq.fu_full::FloatCvt                     0      0.00%     82.99% # attempts to use FU when none available
system.cpu.iq.fu_full::FloatMult                    0      0.00%     82.99% # attempts to use FU when none available
system.cpu.iq.fu_full::FloatMultAcc                 0      0.00%     82.99% # attempts to use FU when none available
system.cpu.iq.fu_full::FloatDiv                     0      0.00%     82.99% # attempts to use FU when none available
system.cpu.iq.fu_full::FloatMisc                    0      0.00%     82.99% # attempts to use FU when none available
system.cpu.iq.fu_full::FloatSqrt                    0      0.00%     82.99% # attempts to use FU when none available
system.cpu.iq.fu_full::SimdAdd                      0      0.00%     82.99% # attempts to use FU when none available
system.cpu.iq.fu_full::SimdAddAcc                   0      0.00%     82.99% # attempts to use FU when none available
system.cpu.iq.fu_full::SimdAlu                      0      0.00%     82.99% # attempts to use FU when none available
system.cpu.iq.fu_full::SimdCmp                      0      0.00%     82.99% # attempts to use FU when none available
system.cpu.iq.fu_full::SimdCvt                      0      0.00%     82.99% # attempts to use FU when none available
system.cpu.iq.fu_full::SimdMisc                     0      0.00%     82.99% # attempts to use FU when none available
system.cpu.iq.fu_full::SimdMult                     0      0.00%     82.99% # attempts to use FU when none available
system.cpu.iq.fu_full::SimdMultAcc                  0      0.00%     82.99% # attempts to use FU when none available
system.cpu.iq.fu_full::SimdShift                    0      0.00%     82.99% # attempts to use FU when none available
system.cpu.iq.fu_full::SimdShiftAcc                 0      0.00%     82.99% # attempts to use FU when none available
system.cpu.iq.fu_full::SimdSqrt                     0      0.00%     82.99% # attempts to use FU when none available
system.cpu.iq.fu_full::SimdFloatAdd                 0      0.00%     82.99% # attempts to use FU when none available
system.cpu.iq.fu_full::SimdFloatAlu                 0      0.00%     82.99% # attempts to use FU when none available
system.cpu.iq.fu_full::SimdFloatCmp                 0      0.00%     82.99% # attempts to use FU when none available
system.cpu.iq.fu_full::SimdFloatCvt                 0      0.00%     82.99% # attempts to use FU when none available
system.cpu.iq.fu_full::SimdFloatDiv                 0      0.00%     82.99% # attempts to use FU when none available
system.cpu.iq.fu_full::SimdFloatMisc                0      0.00%     82.99% # attempts to use FU when none available
system.cpu.iq.fu_full::SimdFloatMult                0      0.00%     82.99% # attempts to use FU when none available
system.cpu.iq.fu_full::SimdFloatMultAcc             0      0.00%     82.99% # attempts to use FU when none available
system.cpu.iq.fu_full::SimdFloatSqrt                0      0.00%     82.99% # attempts to use FU when none available
system.cpu.iq.fu_full::MemRead                  12431     11.73%     94.72% # attempts to use FU when none available
system.cpu.iq.fu_full::MemWrite                  2543      2.40%     97.12% # attempts to use FU when none available
system.cpu.iq.fu_full::FloatMemRead                27      0.03%     97.15% # attempts to use FU when none available
system.cpu.iq.fu_full::FloatMemWrite             3021      2.85%    100.00% # attempts to use FU when none available
system.cpu.iq.fu_full::IprAccess                    0      0.00%    100.00% # attempts to use FU when none available
system.cpu.iq.fu_full::InstPrefetch                 0      0.00%    100.00% # attempts to use FU when none available
system.cpu.iq.FU_type_0::No_OpClass             63530      0.15%      0.15% # Type of FU issued
system.cpu.iq.FU_type_0::IntAlu              33126521     79.40%     79.55% # Type of FU issued
system.cpu.iq.FU_type_0::IntMult                 9867      0.02%     79.58% # Type of FU issued
system.cpu.iq.FU_type_0::IntDiv                 48112      0.12%     79.69% # Type of FU issued
system.cpu.iq.FU_type_0::FloatAdd              106312      0.25%     79.95% # Type of FU issued
system.cpu.iq.FU_type_0::FloatCmp                   0      0.00%     79.95% # Type of FU issued
system.cpu.iq.FU_type_0::FloatCvt                   0      0.00%     79.95% # Type of FU issued
system.cpu.iq.FU_type_0::FloatMult                  0      0.00%     79.95% # Type of FU issued
system.cpu.iq.FU_type_0::FloatMultAcc               0      0.00%     79.95% # Type of FU issued
system.cpu.iq.FU_type_0::FloatDiv                   0      0.00%     79.95% # Type of FU issued
system.cpu.iq.FU_type_0::FloatMisc                  0      0.00%     79.95% # Type of FU issued
system.cpu.iq.FU_type_0::FloatSqrt                  0      0.00%     79.95% # Type of FU issued
system.cpu.iq.FU_type_0::SimdAdd                    0      0.00%     79.95% # Type of FU issued
system.cpu.iq.FU_type_0::SimdAddAcc                 0      0.00%     79.95% # Type of FU issued
system.cpu.iq.FU_type_0::SimdAlu                    0      0.00%     79.95% # Type of FU issued
system.cpu.iq.FU_type_0::SimdCmp                    0      0.00%     79.95% # Type of FU issued
system.cpu.iq.FU_type_0::SimdCvt                    0      0.00%     79.95% # Type of FU issued
system.cpu.iq.FU_type_0::SimdMisc                   0      0.00%     79.95% # Type of FU issued
system.cpu.iq.FU_type_0::SimdMult                   0      0.00%     79.95% # Type of FU issued
system.cpu.iq.FU_type_0::SimdMultAcc                0      0.00%     79.95% # Type of FU issued
system.cpu.iq.FU_type_0::SimdShift                  0      0.00%     79.95% # Type of FU issued
system.cpu.iq.FU_type_0::SimdShiftAcc               0      0.00%     79.95% # Type of FU issued
system.cpu.iq.FU_type_0::SimdSqrt                   0      0.00%     79.95% # Type of FU issued
system.cpu.iq.FU_type_0::SimdFloatAdd               0      0.00%     79.95% # Type of FU issued
system.cpu.iq.FU_type_0::SimdFloatAlu               0      0.00%     79.95% # Type of FU issued
system.cpu.iq.FU_type_0::SimdFloatCmp               0      0.00%     79.95% # Type of FU issued
system.cpu.iq.FU_type_0::SimdFloatCvt               0      0.00%     79.95% # Type of FU issued
system.cpu.iq.FU_type_0::SimdFloatDiv               0      0.00%     79.95% # Type of FU issued
system.cpu.iq.FU_type_0::SimdFloatMisc              0      0.00%     79.95% # Type of FU issued
system.cpu.iq.FU_type_0::SimdFloatMult              0      0.00%     79.95% # Type of FU issued
system.cpu.iq.FU_type_0::SimdFloatMultAcc            0      0.00%     79.95% # Type of FU issued
system.cpu.iq.FU_type_0::SimdFloatSqrt              0      0.00%     79.95% # Type of FU issued
system.cpu.iq.FU_type_0::MemRead              7846491     18.81%     98.75% # Type of FU issued
system.cpu.iq.FU_type_0::MemWrite              471191      1.13%     99.88% # Type of FU issued
system.cpu.iq.FU_type_0::FloatMemRead           32624      0.08%     99.96% # Type of FU issued
system.cpu.iq.FU_type_0::FloatMemWrite          15964      0.04%    100.00% # Type of FU issued
system.cpu.iq.FU_type_0::IprAccess                  0      0.00%    100.00% # Type of FU issued
system.cpu.iq.FU_type_0::InstPrefetch               0      0.00%    100.00% # Type of FU issued
system.cpu.iq.FU_type_0::total               41720612                       # Type of FU issued
system.cpu.iq.rate                           3.319915                       # Inst issue rate
system.cpu.iq.fu_busy_cnt                      105979                       # FU busy when requested
system.cpu.iq.fu_busy_rate                   0.002540                       # FU busy rate (busy events/executed inst)
system.cpu.iq.int_inst_queue_reads           93060000                       # Number of integer instruction queue reads
system.cpu.iq.int_inst_queue_writes          44479638                       # Number of integer instruction queue writes
system.cpu.iq.int_inst_queue_wakeup_accesses     41208904                       # Number of integer instruction queue wakeup accesses
system.cpu.iq.fp_inst_queue_reads              370593                       # Number of floating instruction queue reads
system.cpu.iq.fp_inst_queue_writes             221915                       # Number of floating instruction queue writes
system.cpu.iq.fp_inst_queue_wakeup_accesses       180936                       # Number of floating instruction queue wakeup accesses
system.cpu.iq.vec_inst_queue_reads                  0                       # Number of vector instruction queue reads
system.cpu.iq.vec_inst_queue_writes                 0                       # Number of vector instruction queue writes
system.cpu.iq.vec_inst_queue_wakeup_accesses            0                       # Number of vector instruction queue wakeup accesses
system.cpu.iq.int_alu_accesses               41575826                       # Number of integer alu accesses
system.cpu.iq.fp_alu_accesses                  187235                       # Number of floating point alu accesses
system.cpu.iq.vec_alu_accesses                      0                       # Number of vector alu accesses
system.cpu.iew.lsq.thread0.forwLoads            80137                       # Number of loads that had data forwarded from stores
system.cpu.iew.lsq.thread0.invAddrLoads             0                       # Number of loads ignored due to an invalid address
system.cpu.iew.lsq.thread0.squashedLoads       323522                       # Number of loads squashed
system.cpu.iew.lsq.thread0.ignoredResponses         1418                       # Number of memory responses ignored because the instruction is squashed
system.cpu.iew.lsq.thread0.memOrderViolation          663                       # Number of memory ordering violations
system.cpu.iew.lsq.thread0.squashedStores       186704                       # Number of stores squashed
system.cpu.iew.lsq.thread0.invAddrSwpfs             0                       # Number of software prefetches ignored due to an invalid address
system.cpu.iew.lsq.thread0.blockedLoads             0                       # Number of blocked loads due to partial load-store forwarding
system.cpu.iew.lsq.thread0.rescheduledLoads          305                       # Number of loads that were rescheduled
system.cpu.iew.lsq.thread0.cacheBlocked            22                       # Number of times an access to memory failed due to the cache being blocked
system.cpu.iew.iewIdleCycles                        0                       # Number of cycles IEW is idle
system.cpu.iew.iewSquashCycles                  92556                       # Number of cycles IEW is squashing
system.cpu.iew.iewBlockCycles                  255642                       # Number of cycles IEW is blocking
system.cpu.iew.iewUnblockCycles                   411                       # Number of cycles IEW is unblocking
system.cpu.iew.iewDispatchedInsts            42481995                       # Number of instructions dispatched to IQ
system.cpu.iew.iewDispSquashedInsts             14003                       # Number of squashed instructions skipped by dispatch
system.cpu.iew.iewDispLoadInsts               7959474                       # Number of dispatched load instructions
system.cpu.iew.iewDispStoreInsts               585224                       # Number of dispatched store instructions
system.cpu.iew.iewDispNonSpecInsts               2709                       # Number of dispatched non-speculative instructions
system.cpu.iew.iewIQFullEvents                    122                       # Number of times the IQ has become full, causing a stall
system.cpu.iew.iewLSQFullEvents                   208                       # Number of times the LSQ has become full, causing a stall
system.cpu.iew.memOrderViolationEvents            663                       # Number of memory order violations
system.cpu.iew.predictedTakenIncorrect          20257                       # Number of branches that were predicted taken incorrectly
system.cpu.iew.predictedNotTakenIncorrect        99764                       # Number of branches that were predicted not taken incorrectly
system.cpu.iew.branchMispredicts               120021                       # Number of branch mispredicts detected at execute
system.cpu.iew.iewExecutedInsts              41495762                       # Number of executed instructions
system.cpu.iew.iewExecLoadInsts               7833050                       # Number of load instructions executed
system.cpu.iew.iewExecSquashedInsts            224850                       # Number of squashed instructions skipped in execute
system.cpu.iew.exec_swp                             0                       # number of swp insts executed
system.cpu.iew.exec_nop                             0                       # number of nop insts executed
system.cpu.iew.exec_refs                      8295733                       # number of memory reference insts executed
system.cpu.iew.exec_branches                  7701489                       # Number of branches executed
system.cpu.iew.exec_stores                     462683                       # Number of stores executed
system.cpu.iew.exec_rate                     3.302023                       # Inst execution rate
system.cpu.iew.wb_sent                       41439566                       # cumulative count of insts sent to commit
system.cpu.iew.wb_count                      41389840                       # cumulative count of insts written-back
system.cpu.iew.wb_producers                  32496716                       # num instructions producing a value
system.cpu.iew.wb_consumers                  42315010                       # num instructions consuming a value
system.cpu.iew.wb_rate                       3.293594                       # insts written-back per cycle
system.cpu.iew.wb_fanout                     0.767971                       # average fanout of values written-back
system.cpu.commit.commitSquashedInsts         2219270                       # The number of squashed insts skipped by commit
system.cpu.commit.commitNonSpecStalls             782                       # The number of times commit has been forced to stall to communicate backwards
system.cpu.commit.branchMispredicts             92411                       # The number of times a branch was mispredicted
system.cpu.commit.committed_per_cycle::samples      9522173                       # Number of insts commited each cycle
system.cpu.commit.committed_per_cycle::mean     4.228307                       # Number of insts commited each cycle
system.cpu.commit.committed_per_cycle::stdev     1.915948                       # Number of insts commited each cycle
system.cpu.commit.committed_per_cycle::underflows            0      0.00%      0.00% # Number of insts commited each cycle
system.cpu.commit.committed_per_cycle::0      1175871     12.35%     12.35% # Number of insts commited each cycle
system.cpu.commit.committed_per_cycle::1       332108      3.49%     15.84% # Number of insts commited each cycle
system.cpu.commit.committed_per_cycle::2       216642      2.28%     18.11% # Number of insts commited each cycle
system.cpu.commit.committed_per_cycle::3       218026      2.29%     20.40% # Number of insts commited each cycle
system.cpu.commit.committed_per_cycle::4       108102      1.14%     21.54% # Number of insts commited each cycle
system.cpu.commit.committed_per_cycle::5      7076090     74.31%     95.85% # Number of insts commited each cycle
system.cpu.commit.committed_per_cycle::6        44116      0.46%     96.31% # Number of insts commited each cycle
system.cpu.commit.committed_per_cycle::7        44099      0.46%     96.77% # Number of insts commited each cycle
system.cpu.commit.committed_per_cycle::8       307119      3.23%    100.00% # Number of insts commited each cycle
system.cpu.commit.committed_per_cycle::overflows            0      0.00%    100.00% # Number of insts commited each cycle
system.cpu.commit.committed_per_cycle::min_value            0                       # Number of insts commited each cycle
system.cpu.commit.committed_per_cycle::max_value            8                       # Number of insts commited each cycle
system.cpu.commit.committed_per_cycle::total      9522173                       # Number of insts commited each cycle
system.cpu.commit.committedInsts             23695672                       # Number of instructions committed
system.cpu.commit.committedOps               40262669                       # Number of ops (including micro ops) committed
system.cpu.commit.swp_count                         0                       # Number of s/w prefetches committed
system.cpu.commit.refs                        8034472                       # Number of memory references committed
system.cpu.commit.loads                       7635952                       # Number of loads committed
system.cpu.commit.membars                           0                       # Number of memory barriers committed
system.cpu.commit.branches                    7610976                       # Number of branches committed
system.cpu.commit.vec_insts                         0                       # Number of committed Vector instructions.
system.cpu.commit.fp_insts                     169097                       # Number of committed floating point instructions.
system.cpu.commit.int_insts                  40118474                       # Number of committed integer instructions.
system.cpu.commit.function_calls                44284                       # Number of function calls committed.
system.cpu.commit.op_class_0::No_OpClass        33557      0.08%      0.08% # Class of committed instruction
system.cpu.commit.op_class_0::IntAlu         32039635     79.58%     79.66% # Class of committed instruction
system.cpu.commit.op_class_0::IntMult            9692      0.02%     79.68% # Class of committed instruction
system.cpu.commit.op_class_0::IntDiv            44191      0.11%     79.79% # Class of committed instruction
system.cpu.commit.op_class_0::FloatAdd         101122      0.25%     80.04% # Class of committed instruction
system.cpu.commit.op_class_0::FloatCmp              0      0.00%     80.04% # Class of committed instruction
system.cpu.commit.op_class_0::FloatCvt              0      0.00%     80.04% # Class of committed instruction
system.cpu.commit.op_class_0::FloatMult             0      0.00%     80.04% # Class of committed instruction
system.cpu.commit.op_class_0::FloatMultAcc            0      0.00%     80.04% # Class of committed instruction
system.cpu.commit.op_class_0::FloatDiv              0      0.00%     80.04% # Class of committed instruction
system.cpu.commit.op_class_0::FloatMisc             0      0.00%     80.04% # Class of committed instruction
system.cpu.commit.op_class_0::FloatSqrt             0      0.00%     80.04% # Class of committed instruction
system.cpu.commit.op_class_0::SimdAdd               0      0.00%     80.04% # Class of committed instruction
system.cpu.commit.op_class_0::SimdAddAcc            0      0.00%     80.04% # Class of committed instruction
system.cpu.commit.op_class_0::SimdAlu               0      0.00%     80.04% # Class of committed instruction
system.cpu.commit.op_class_0::SimdCmp               0      0.00%     80.04% # Class of committed instruction
system.cpu.commit.op_class_0::SimdCvt               0      0.00%     80.04% # Class of committed instruction
system.cpu.commit.op_class_0::SimdMisc              0      0.00%     80.04% # Class of committed instruction
system.cpu.commit.op_class_0::SimdMult              0      0.00%     80.04% # Class of committed instruction
system.cpu.commit.op_class_0::SimdMultAcc            0      0.00%     80.04% # Class of committed instruction
system.cpu.commit.op_class_0::SimdShift             0      0.00%     80.04% # Class of committed instruction
system.cpu.commit.op_class_0::SimdShiftAcc            0      0.00%     80.04% # Class of committed instruction
system.cpu.commit.op_class_0::SimdSqrt              0      0.00%     80.04% # Class of committed instruction
system.cpu.commit.op_class_0::SimdFloatAdd            0      0.00%     80.04% # Class of committed instruction
system.cpu.commit.op_class_0::SimdFloatAlu            0      0.00%     80.04% # Class of committed instruction
system.cpu.commit.op_class_0::SimdFloatCmp            0      0.00%     80.04% # Class of committed instruction
system.cpu.commit.op_class_0::SimdFloatCvt            0      0.00%     80.04% # Class of committed instruction
system.cpu.commit.op_class_0::SimdFloatDiv            0      0.00%     80.04% # Class of committed instruction
system.cpu.commit.op_class_0::SimdFloatMisc            0      0.00%     80.04% # Class of committed instruction
system.cpu.commit.op_class_0::SimdFloatMult            0      0.00%     80.04% # Class of committed instruction
system.cpu.commit.op_class_0::SimdFloatMultAcc            0      0.00%     80.04% # Class of committed instruction
system.cpu.commit.op_class_0::SimdFloatSqrt            0      0.00%     80.04% # Class of committed instruction
system.cpu.commit.op_class_0::MemRead         7607726     18.90%     98.94% # Class of committed instruction
system.cpu.commit.op_class_0::MemWrite         383115      0.95%     99.89% # Class of committed instruction
system.cpu.commit.op_class_0::FloatMemRead        28226      0.07%     99.96% # Class of committed instruction
system.cpu.commit.op_class_0::FloatMemWrite        15405      0.04%    100.00% # Class of committed instruction
system.cpu.commit.op_class_0::IprAccess             0      0.00%    100.00% # Class of committed instruction
system.cpu.commit.op_class_0::InstPrefetch            0      0.00%    100.00% # Class of committed instruction
system.cpu.commit.op_class_0::total          40262669                       # Class of committed instruction
system.cpu.commit.bw_lim_events                307119                       # number cycles where commit BW limit reached
system.cpu.rob.rob_reads                     51696980                       # The number of ROB reads
system.cpu.rob.rob_writes                    85307486                       # The number of ROB writes
system.cpu.timesIdled                           19116                       # Number of times that the entire CPU went into an idle state and unscheduled itself
system.cpu.idleCycles                         2706501                       # Total number of cycles that the CPU has spent unscheduled due to idling
system.cpu.committedInsts                    23695672                       # Number of Instructions Simulated
system.cpu.committedOps                      40262669                       # Number of Ops (including micro ops) Simulated
system.cpu.cpi                               0.530340                       # CPI: Cycles Per Instruction
system.cpu.cpi_total                         0.530340                       # CPI: Total CPI of All Threads
system.cpu.ipc                               1.885582                       # IPC: Instructions Per Cycle
system.cpu.ipc_total                         1.885582                       # IPC: Total IPC of All Threads
system.cpu.int_regfile_reads                 51173068                       # number of integer regfile reads
system.cpu.int_regfile_writes                33174381                       # number of integer regfile writes
system.cpu.fp_regfile_reads                    307887                       # number of floating regfile reads
system.cpu.fp_regfile_writes                   149114                       # number of floating regfile writes
system.cpu.cc_regfile_reads                  38403467                       # number of cc regfile reads
system.cpu.cc_regfile_writes                 15948626                       # number of cc regfile writes
system.cpu.misc_regfile_reads                23736991                       # number of misc regfile reads
system.cpu.dcache.prefetcher.pwrStateResidencyTicks::UNDEFINED   6283384500                       # Cumulative time (in ticks) in various power states
system.cpu.dcache.prefetcher.num_hwpf_issued     38102203                       # number of hwpf issued
system.cpu.dcache.prefetcher.pfIdentified     65055153                       # number of prefetch candidates identified
system.cpu.dcache.prefetcher.pfBufferHit     26850003                       # number of redundant prefetches already in prefetch queue
system.cpu.dcache.prefetcher.pfInCache              0                       # number of redundant prefetches already in cache/mshr dropped
system.cpu.dcache.prefetcher.pfRemovedFull           81                       # number of prefetches dropped due to prefetch queue size
system.cpu.dcache.prefetcher.pfSpanPage         75879                       # number of prefetches not generated due to page crossing
system.cpu.dcache.tags.pwrStateResidencyTicks::UNDEFINED   6283384500                       # Cumulative time (in ticks) in various power states
system.cpu.dcache.tags.replacements              3794                       # number of replacements
system.cpu.dcache.tags.tagsinuse           594.630414                       # Cycle average of tags in use
system.cpu.dcache.tags.total_refs             8139138                       # Total number of references to valid blocks.
system.cpu.dcache.tags.sampled_refs              4520                       # Sample count of references to valid blocks.
system.cpu.dcache.tags.avg_refs           1800.694248                       # Average number of references to valid blocks.
system.cpu.dcache.tags.warmup_cycle                 0                       # Cycle when the warmup percentage was hit.
system.cpu.dcache.tags.occ_blocks::cpu.data    93.357873                       # Average occupied blocks per requestor
system.cpu.dcache.tags.occ_blocks::cpu.dcache.prefetcher   501.272541                       # Average occupied blocks per requestor
system.cpu.dcache.tags.occ_percent::cpu.data     0.091170                       # Average percentage of cache occupancy
system.cpu.dcache.tags.occ_percent::cpu.dcache.prefetcher     0.489524                       # Average percentage of cache occupancy
system.cpu.dcache.tags.occ_percent::total     0.580694                       # Average percentage of cache occupancy
system.cpu.dcache.tags.occ_task_id_blocks::1022          610                       # Occupied blocks per task id
system.cpu.dcache.tags.occ_task_id_blocks::1024          116                       # Occupied blocks per task id
system.cpu.dcache.tags.age_task_id_blocks_1022::0           35                       # Occupied blocks per task id
system.cpu.dcache.tags.age_task_id_blocks_1022::1            4                       # Occupied blocks per task id
system.cpu.dcache.tags.age_task_id_blocks_1022::2           31                       # Occupied blocks per task id
system.cpu.dcache.tags.age_task_id_blocks_1022::3          540                       # Occupied blocks per task id
system.cpu.dcache.tags.age_task_id_blocks_1024::0            3                       # Occupied blocks per task id
system.cpu.dcache.tags.age_task_id_blocks_1024::2            8                       # Occupied blocks per task id
system.cpu.dcache.tags.age_task_id_blocks_1024::3          105                       # Occupied blocks per task id
system.cpu.dcache.tags.occ_task_id_percent::1022     0.595703                       # Percentage of cache occupancy per task id
system.cpu.dcache.tags.occ_task_id_percent::1024     0.113281                       # Percentage of cache occupancy per task id
system.cpu.dcache.tags.tag_accesses          16287374                       # Number of tag accesses
system.cpu.dcache.tags.data_accesses         16287374                       # Number of data accesses
system.cpu.dcache.pwrStateResidencyTicks::UNDEFINED   6283384500                       # Cumulative time (in ticks) in various power states
system.cpu.dcache.ReadReq_hits::cpu.data      7740669                       # number of ReadReq hits
system.cpu.dcache.ReadReq_hits::total         7740669                       # number of ReadReq hits
system.cpu.dcache.WriteReq_hits::cpu.data       398465                       # number of WriteReq hits
system.cpu.dcache.WriteReq_hits::total         398465                       # number of WriteReq hits
system.cpu.dcache.demand_hits::cpu.data       8139134                       # number of demand (read+write) hits
system.cpu.dcache.demand_hits::total          8139134                       # number of demand (read+write) hits
system.cpu.dcache.overall_hits::cpu.data      8139134                       # number of overall hits
system.cpu.dcache.overall_hits::total         8139134                       # number of overall hits
system.cpu.dcache.ReadReq_misses::cpu.data         2190                       # number of ReadReq misses
system.cpu.dcache.ReadReq_misses::total          2190                       # number of ReadReq misses
system.cpu.dcache.WriteReq_misses::cpu.data           55                       # number of WriteReq misses
[...]
system.feature_extraction_datapath.cache.overall_misses::feature_extraction_datapath.cache           99                       # number of overall misses
system.feature_extraction_datapath.cache.overall_misses::total           99                       # number of overall misses
system.feature_extraction_datapath.cache.ReadReq_miss_latency::feature_extraction_datapath.cache       120000                       # number of ReadReq miss cycles
system.feature_extraction_datapath.cache.ReadReq_miss_latency::total       120000                       # number of ReadReq miss cycles
system.feature_extraction_datapath.cache.WriteReq_miss_latency::feature_extraction_datapath.cache      3840000                       # number of WriteReq miss cycles
system.feature_extraction_datapath.cache.WriteReq_miss_latency::total      3840000                       # number of WriteReq miss cycles
system.feature_extraction_datapath.cache.demand_miss_latency::feature_extraction_datapath.cache      3960000                       # number of demand (read+write) miss cycles
system.feature_extraction_datapath.cache.demand_miss_latency::total      3960000                       # number of demand (read+write) miss cycles
system.feature_extraction_datapath.cache.overall_miss_latency::feature_extraction_datapath.cache      3960000                       # number of overall miss cycles
system.feature_extraction_datapath.cache.overall_miss_latency::total      3960000                       # number of overall miss cycles
system.feature_extraction_datapath.cache.ReadReq_accesses::feature_extraction_datapath.cache         4290                       # number of ReadReq accesses(hits+misses)
system.feature_extraction_datapath.cache.ReadReq_accesses::total         4290                       # number of ReadReq accesses(hits+misses)
system.feature_extraction_datapath.cache.WriteReq_accesses::feature_extraction_datapath.cache          751                       # number of WriteReq accesses(hits+misses)
system.feature_extraction_datapath.cache.WriteReq_accesses::total          751                       # number of WriteReq accesses(hits+misses)
system.feature_extraction_datapath.cache.demand_accesses::feature_extraction_datapath.cache         5041                       # number of demand (read+write) accesses
system.feature_extraction_datapath.cache.demand_accesses::total         5041                       # number of demand (read+write) accesses
system.feature_extraction_datapath.cache.overall_accesses::feature_extraction_datapath.cache         5041                       # number of overall (read+write) accesses
system.feature_extraction_datapath.cache.overall_accesses::total         5041                       # number of overall (read+write) accesses
system.feature_extraction_datapath.cache.ReadReq_miss_rate::feature_extraction_datapath.cache     0.000699                       # miss rate for ReadReq accesses
system.feature_extraction_datapath.cache.ReadReq_miss_rate::total     0.000699                       # miss rate for ReadReq accesses
system.feature_extraction_datapath.cache.WriteReq_miss_rate::feature_extraction_datapath.cache     0.127830                       # miss rate for WriteReq accesses
system.feature_extraction_datapath.cache.WriteReq_miss_rate::total     0.127830                       # miss rate for WriteReq accesses
system.feature_extraction_datapath.cache.demand_miss_rate::feature_extraction_datapath.cache     0.019639                       # miss rate for demand accesses
system.feature_extraction_datapath.cache.demand_miss_rate::total     0.019639                       # miss rate for demand accesses
system.feature_extraction_datapath.cache.overall_miss_rate::feature_extraction_datapath.cache     0.019639                       # miss rate for overall accesses
system.feature_extraction_datapath.cache.overall_miss_rate::total     0.019639                       # miss rate for overall accesses
system.feature_extraction_datapath.cache.ReadReq_avg_miss_latency::feature_extraction_datapath.cache        40000                       # average ReadReq miss latency
system.feature_extraction_datapath.cache.ReadReq_avg_miss_latency::total        40000                       # average ReadReq miss latency
system.feature_extraction_datapath.cache.WriteReq_avg_miss_latency::feature_extraction_datapath.cache        40000                       # average WriteReq miss latency
system.feature_extraction_datapath.cache.WriteReq_avg_miss_latency::total        40000                       # average WriteReq miss latency
system.feature_extraction_datapath.cache.demand_avg_miss_latency::feature_extraction_datapath.cache        40000                       # average overall miss latency
system.feature_extraction_datapath.cache.demand_avg_miss_latency::total        40000                       # average overall miss latency
system.feature_extraction_datapath.cache.overall_avg_miss_latency::feature_extraction_datapath.cache        40000                       # average overall miss latency
system.feature_extraction_datapath.cache.overall_avg_miss_latency::total        40000                       # average overall miss latency
system.feature_extraction_datapath.cache.blocked_cycles::no_mshrs            0                       # number of cycles access was blocked
system.feature_extraction_datapath.cache.blocked_cycles::no_targets            0                       # number of cycles access was blocked
system.feature_extraction_datapath.cache.blocked::no_mshrs            0                       # number of cycles access was blocked
system.feature_extraction_datapath.cache.blocked::no_targets            0                       # number of cycles access was blocked
system.feature_extraction_datapath.cache.avg_blocked_cycles::no_mshrs          nan                       # average number of cycles each access was blocked
system.feature_extraction_datapath.cache.avg_blocked_cycles::no_targets          nan                       # average number of cycles each access was blocked
system.feature_extraction_datapath.cache.ReadReq_mshr_misses::feature_extraction_datapath.cache            3                       # number of ReadReq MSHR misses
system.feature_extraction_datapath.cache.ReadReq_mshr_misses::total            3                       # number of ReadReq MSHR misses
system.feature_extraction_datapath.cache.WriteReq_mshr_misses::feature_extraction_datapath.cache           96                       # number of WriteReq MSHR misses
system.feature_extraction_datapath.cache.WriteReq_mshr_misses::total           96                       # number of WriteReq MSHR misses
system.feature_extraction_datapath.cache.HardPFReq_mshr_misses::feature_extraction_datapath.cache.prefetcher          211                       # number of HardPFReq MSHR misses
system.feature_extraction_datapath.cache.HardPFReq_mshr_misses::total          211                       # number of HardPFReq MSHR misses
system.feature_extraction_datapath.cache.demand_mshr_misses::feature_extraction_datapath.cache           99                       # number of demand (read+write) MSHR misses
system.feature_extraction_datapath.cache.demand_mshr_misses::total           99                       # number of demand (read+write) MSHR misses
system.feature_extraction_datapath.cache.overall_mshr_misses::feature_extraction_datapath.cache           99                       # number of overall MSHR misses
system.feature_extraction_datapath.cache.overall_mshr_misses::feature_extraction_datapath.cache.prefetcher          211                       # number of overall MSHR misses
system.feature_extraction_datapath.cache.overall_mshr_misses::total          310                       # number of overall MSHR misses
system.feature_extraction_datapath.cache.ReadReq_mshr_miss_latency::feature_extraction_datapath.cache        72000                       # number of ReadReq MSHR miss cycles
system.feature_extraction_datapath.cache.ReadReq_mshr_miss_latency::total        72000                       # number of ReadReq MSHR miss cycles
system.feature_extraction_datapath.cache.WriteReq_mshr_miss_latency::feature_extraction_datapath.cache      2016000                       # number of WriteReq MSHR miss cycles
system.feature_extraction_datapath.cache.WriteReq_mshr_miss_latency::total      2016000                       # number of WriteReq MSHR miss cycles
system.feature_extraction_datapath.cache.HardPFReq_mshr_miss_latency::feature_extraction_datapath.cache.prefetcher      4689777                       # number of HardPFReq MSHR miss cycles
system.feature_extraction_datapath.cache.HardPFReq_mshr_miss_latency::total      4689777                       # number of HardPFReq MSHR miss cycles
system.feature_extraction_datapath.cache.demand_mshr_miss_latency::feature_extraction_datapath.cache      2088000                       # number of demand (read+write) MSHR miss cycles
system.feature_extraction_datapath.cache.demand_mshr_miss_latency::total      2088000                       # number of demand (read+write) MSHR miss cycles
system.feature_extraction_datapath.cache.overall_mshr_miss_latency::feature_extraction_datapath.cache      2088000                       # number of overall MSHR miss cycles
system.feature_extraction_datapath.cache.overall_mshr_miss_latency::feature_extraction_datapath.cache.prefetcher      4689777                       # number of overall MSHR miss cycles
system.feature_extraction_datapath.cache.overall_mshr_miss_latency::total      6777777                       # number of overall MSHR miss cycles
system.feature_extraction_datapath.cache.ReadReq_mshr_miss_rate::feature_extraction_datapath.cache     0.000699                       # mshr miss rate for ReadReq accesses
system.feature_extraction_datapath.cache.ReadReq_mshr_miss_rate::total     0.000699                       # mshr miss rate for ReadReq accesses
system.feature_extraction_datapath.cache.WriteReq_mshr_miss_rate::feature_extraction_datapath.cache     0.127830                       # mshr miss rate for WriteReq accesses
system.feature_extraction_datapath.cache.WriteReq_mshr_miss_rate::total     0.127830                       # mshr miss rate for WriteReq accesses
system.feature_extraction_datapath.cache.HardPFReq_mshr_miss_rate::feature_extraction_datapath.cache.prefetcher          inf                       # mshr miss rate for HardPFReq accesses
system.feature_extraction_datapath.cache.HardPFReq_mshr_miss_rate::total          inf                       # mshr miss rate for HardPFReq accesses
system.feature_extraction_datapath.cache.demand_mshr_miss_rate::feature_extraction_datapath.cache     0.019639                       # mshr miss rate for demand accesses
system.feature_extraction_datapath.cache.demand_mshr_miss_rate::total     0.019639                       # mshr miss rate for demand accesses
system.feature_extraction_datapath.cache.overall_mshr_miss_rate::feature_extraction_datapath.cache     0.019639                       # mshr miss rate for overall accesses
system.feature_extraction_datapath.cache.overall_mshr_miss_rate::feature_extraction_datapath.cache.prefetcher          inf                       # mshr miss rate for overall accesses
system.feature_extraction_datapath.cache.overall_mshr_miss_rate::total     0.061496                       # mshr miss rate for overall accesses
system.feature_extraction_datapath.cache.ReadReq_avg_mshr_miss_latency::feature_extraction_datapath.cache        24000                       # average ReadReq mshr miss latency
system.feature_extraction_datapath.cache.ReadReq_avg_mshr_miss_latency::total        24000                       # average ReadReq mshr miss latency
system.feature_extraction_datapath.cache.WriteReq_avg_mshr_miss_latency::feature_extraction_datapath.cache        21000                       # average WriteReq mshr miss latency
system.feature_extraction_datapath.cache.WriteReq_avg_mshr_miss_latency::total        21000                       # average WriteReq mshr miss latency
system.feature_extraction_datapath.cache.HardPFReq_avg_mshr_miss_latency::feature_extraction_datapath.cache.prefetcher 22226.431280                       # average HardPFReq mshr miss latency
system.feature_extraction_datapath.cache.HardPFReq_avg_mshr_miss_latency::total 22226.431280                       # average HardPFReq mshr miss latency
system.feature_extraction_datapath.cache.demand_avg_mshr_miss_latency::feature_extraction_datapath.cache 21090.909091                       # average overall mshr miss latency
system.feature_extraction_datapath.cache.demand_avg_mshr_miss_latency::total 21090.909091                       # average overall mshr miss latency
system.feature_extraction_datapath.cache.overall_avg_mshr_miss_latency::feature_extraction_datapath.cache 21090.909091                       # average overall mshr miss latency
system.feature_extraction_datapath.cache.overall_avg_mshr_miss_latency::feature_extraction_datapath.cache.prefetcher 22226.431280                       # average overall mshr miss latency
system.feature_extraction_datapath.cache.overall_avg_mshr_miss_latency::total 21863.796774                       # average overall mshr miss latency
system.membus.snoop_filter.tot_requests        381736                       # Total number of requests made to the snoop filter.
system.membus.snoop_filter.hit_single_requests       190326                       # Number of requests hitting in the snoop filter with a single holder of the requested data.
system.membus.snoop_filter.hit_multi_requests         1329                       # Number of requests hitting in the snoop filter with multiple (>1) holders of the requested data.
system.membus.snoop_filter.tot_snoops               0                       # Total number of snoops made to the snoop filter.
system.membus.snoop_filter.hit_single_snoops            0                       # Number of snoops hitting in the snoop filter with a single holder of the requested data.
system.membus.snoop_filter.hit_multi_snoops            0                       # Number of snoops hitting in the snoop filter with multiple (>1) holders of the requested data.
system.membus.pwrStateResidencyTicks::UNDEFINED   6283384500                       # Cumulative time (in ticks) in various power states
system.membus.trans_dist::ReadResp             191537                       # Transaction distribution
system.membus.trans_dist::WritebackDirty           72                       # Transaction distribution
system.membus.trans_dist::CleanEvict           189966                       # Transaction distribution
system.membus.trans_dist::UpgradeReq               96                       # Transaction distribution
system.membus.trans_dist::UpgradeResp              93                       # Transaction distribution
system.membus.trans_dist::ReadExReq                51                       # Transaction distribution
system.membus.trans_dist::ReadExResp               51                       # Transaction distribution
system.membus.trans_dist::ReadSharedReq        191551                       # Transaction distribution
system.membus.pkt_count_system.cpu.icache.mem_side::system.mem_ctrls.port       559766                       # Packet count per connected master and slave (bytes)
system.membus.pkt_count_system.cpu.icache.mem_side::total       559766                       # Packet count per connected master and slave (bytes)
system.membus.pkt_count_system.cpu.dcache.mem_side::system.mem_ctrls.port        11747                       # Packet count per connected master and slave (bytes)
system.membus.pkt_count_system.cpu.dcache.mem_side::total        11747                       # Packet count per connected master and slave (bytes)
system.membus.pkt_count_system.feature_extraction_datapath.cache.mem_side::system.mem_ctrls.port          330                       # Packet count per connected master and slave (bytes)
system.membus.pkt_count_system.feature_extraction_datapath.cache.mem_side::total          330                       # Packet count per connected master and slave (bytes)
system.membus.pkt_count::total                 571843                       # Packet count per connected master and slave (bytes)
system.membus.pkt_size_system.cpu.icache.mem_side::system.mem_ctrls.port     11952256                       # Cumulative packet size per connected master and slave (bytes)
system.membus.pkt_size_system.cpu.icache.mem_side::total     11952256                       # Cumulative packet size per connected master and slave (bytes)
system.membus.pkt_size_system.cpu.dcache.mem_side::system.mem_ctrls.port       217920                       # Cumulative packet size per connected master and slave (bytes)
system.membus.pkt_size_system.cpu.dcache.mem_side::total       217920                       # Cumulative packet size per connected master and slave (bytes)
system.membus.pkt_size_system.feature_extraction_datapath.cache.mem_side::system.mem_ctrls.port         1280                       # Cumulative packet size per connected master and slave (bytes)
system.membus.pkt_size_system.feature_extraction_datapath.cache.mem_side::total         1280                       # Cumulative packet size per connected master and slave (bytes)
system.membus.pkt_size::total                12171456                       # Cumulative packet size per connected master and slave (bytes)
system.membus.snoops                             1574                       # Total snoops (count)
system.membus.snoopTraffic                      94784                       # Total snoop traffic (bytes)
system.membus.snoop_fanout::samples            191698                       # Request fanout histogram
system.membus.snoop_fanout::mean             0.008435                       # Request fanout histogram
system.membus.snoop_fanout::stdev            0.091455                       # Request fanout histogram
system.membus.snoop_fanout::underflows              0      0.00%      0.00% # Request fanout histogram
system.membus.snoop_fanout::0                  190081     99.16%     99.16% # Request fanout histogram
system.membus.snoop_fanout::1                    1617      0.84%    100.00% # Request fanout histogram
system.membus.snoop_fanout::2                       0      0.00%    100.00% # Request fanout histogram
system.membus.snoop_fanout::3                       0      0.00%    100.00% # Request fanout histogram
system.membus.snoop_fanout::4                       0      0.00%    100.00% # Request fanout histogram
system.membus.snoop_fanout::5                       0      0.00%    100.00% # Request fanout histogram
system.membus.snoop_fanout::6                       0      0.00%    100.00% # Request fanout histogram
system.membus.snoop_fanout::overflows               0      0.00%    100.00% # Request fanout histogram
system.membus.snoop_fanout::min_value               0                       # Request fanout histogram
system.membus.snoop_fanout::max_value               1                       # Request fanout histogram
system.membus.snoop_fanout::total              191698                       # Request fanout histogram
system.membus.reqLayer2.occupancy           421071822                       # Layer occupancy (ticks)
system.membus.reqLayer2.utilization               6.7                       # Layer utilization (%)
system.membus.respLayer1.occupancy          952199846                       # Layer occupancy (ticks)
system.membus.respLayer1.utilization             15.2                       # Layer utilization (%)
system.membus.respLayer2.occupancy           23755557                       # Layer occupancy (ticks)
system.membus.respLayer2.utilization              0.4                       # Layer utilization (%)
system.membus.respLayer6.occupancy            1220007                       # Layer occupancy (ticks)
system.membus.respLayer6.utilization              0.0                       # Layer utilization (%)

---------- End Simulation Statistics   ----------
